
**** 05/19/23 02:19:21 ****** PSpice 17.2.0 (March 2016) ****** ID# 0 ********

 ** Profile: "SCHEMATIC1-parametric"  [ c:\users\razvan.cacu\desktop\proiect cad\cad-pspicefiles\schematic1\parametric.sim ] 


 ****     CIRCUIT DESCRIPTION


******************************************************************************




** Creating circuit file "parametric.cir" 
** WARNING: THIS AUTOMATICALLY GENERATED FILE MAY BE OVERWRITTEN BY SUBSEQUENT SIMULATIONS

*Libraries: 
* Profile Libraries :
* Local Libraries :
* From [PSPICE NETLIST] section of C:\SPB_Data\cdssetup\OrCAD_PSpice\17.2.0\PSpice.ini file:
.lib "nom.lib" 

*Analysis directives: 
.TRAN  0 2ms 0.1ms SKIPBP 
.STEP LIN PARAM set 0 1 0.1 
.OPTIONS ADVCONV
.PROBE64 V(alias(*)) I(alias(*)) W(alias(*)) D(alias(*)) NOISE(alias(*)) 
.INC "..\SCHEMATIC1.net" 



**** INCLUDING SCHEMATIC1.net ****
* source CAD
R_R34         V- N102589 R_R34 1k TC=0,0 
.model        R_R34 RES R=1 DEV=5% TC1=0 TC2=0
R_R31         V- N103373 R_R31 1k TC=0,0 
.model        R_R31 RES R=1 DEV=5% TC1=0 TC2=0
R_R32         N102343 V+ R_R32 1k TC=0,0 
.model        R_R32 RES R=1 DEV=5% TC1=0 TC2=0
X_U9B         OUT_B N102841 V+ V- N102841 LT1359/LT
R_R5         N102841 N102447 R_R5 8.2k TC=0,0 
.model        R_R5 RES R=1 DEV=2% TC1=0 TC2=0
R_R6         N102447 DREPT R_R6 5.1k TC=0,0 
.model        R_R6 RES R=1 DEV=5% TC1=0 TC2=0
V_V1         V+ 0 15V
R_R17         0 N1026190 R_R17 10k TC=0,0 
.model        R_R17 RES R=1 DEV=5% TC1=0 TC2=0
R_R8         N102971 N102981 R_R8 3.1k TC=0,0 
.model        R_R8 RES R=1 DEV=5% TC1=0 TC2=0
D_D8         DREPT N102589 D1N3604 
R_R29         N102995 V+ R_R29 1k TC=0,0 
.model        R_R29 RES R=1 DEV=5% TC1=0 TC2=0
R_R30         0 OUT_TRI R_R30 25 TC=0,0 
.model        R_R30 RES R=1 DEV=1% TC1=0 TC2=0
X_U8B         N1026190 N102447 V+ V- DREPT LT1359/LT
R_R1         N101971 N101793 R_R1 2.6k TC=0,0 
.model        R_R1 RES R=1 DEV=1% TC1=0 TC2=0
X_U11B         0 N102971 V+ V- N103139 LT1359/LT
X_U7B         N101839 N102217 V+ V- OUT_B LT1359/LT
V_V2         V- 0 -15V
C_C2         0 DREPT C_C2 10n  TC=0,0 
.model        C_C2 CAP C=1 DEV=10% TC1=0 TC2=0 VC1=0 VC2=0
X_U6A         N102163 N101793 V+ V- OUT_INT LT1359/LT
C_C1         N101793 OUT_INT C_C1 10n  TC=0,0 
.model        C_C1 CAP C=1 DEV=5% TC1=0 TC2=0 VC1=0 VC2=0
R_R15         0 N102217 R_R15 5.1k TC=0,0 
.model        R_R15 RES R=1 DEV=5% TC1=0 TC2=0
D_D7         N102343 DREPT D1N3604 
R_R28         0 N102091 R_R28 18k TC=0,0 
.model        R_R28 RES R=1 DEV=5% TC1=0 TC2=0
R_R3         OUT_INT N101839 R_R3 10k TC=0,0 
.model        R_R3 RES R=1 DEV=5% TC1=0 TC2=0
X_P2         N102981 N102981 N103139 POT PARAMS: SET={a} VALUE=1.5k
R_R7         N103225 N102971 R_R7 10k TC=0,0 
.model        R_R7 RES R=1 DEV=5% TC1=0 TC2=0
R_R16         0 N102163 R_R16 5.1k TC=0,0 
.model        R_R16 RES R=1 DEV=5% TC1=0 TC2=0
R_R4         N101839 OUT_B R_R4 10k TC=0,0 
.model        R_R4 RES R=1 DEV=5% TC1=0 TC2=0
R_R33         0 OUT_DREPT R_R33 25 TC=0,0 
.model        R_R33 RES R=1 DEV=1% TC1=0 TC2=0
X_U10B         OUT_INT N103225 V+ V- N103225 LT1359/LT
X_P1         N102091 N101971 OUT_B POT PARAMS: SET={set} VALUE=10k
Q_Q14         V+ N102995 OUT_TRI Q2N2222A/ZTX 
Q_Q15         V- N103373 OUT_TRI TIP32
Q_Q16         V- N102589 OUT_DREPT TIP32
Q_Q17         V+ N102343 OUT_DREPT Q2N2222A/ZTX 
D_D11         N102995 N103139 D1N4148 
D_D12         N103139 N103373 D1N4148 
.IC         V(N101793 )=0
.PARAM  a=1 set=1

**** RESUMING parametric.cir ****
.END

**** 05/19/23 02:19:21 ****** PSpice 17.2.0 (March 2016) ****** ID# 0 ********

 ** Profile: "SCHEMATIC1-parametric"  [ c:\users\razvan.cacu\desktop\proiect cad\cad-pspicefiles\schematic1\parametric.sim ] 


 ****     Diode MODEL PARAMETERS


******************************************************************************




               D1N3604         D1N4148         X_U9B.DM1       X_U9B.DM2       
          IS  980.800000E-21    2.682000E-09   10.000000E-21  800.000000E-18 
           N                    1.836                                        
         ISR   12.270000E-09    1.565000E-09                                 
         IKF                     .04417                                      
          BV   75             100                              43.2          
         IBV    5.000000E-06  100.000000E-06                                 
          RS     .1              .5664                                       
          TT    5.771000E-09   11.540000E-09                                 
         CJO    2.000000E-12    4.000000E-12                                 
          VJ     .75             .5                                          
           M     .3333           .3333                                       


               X_U9B.DM3       X_U8B.DM1       X_U8B.DM2       X_U8B.DM3       
          IS  100.000000E-18   10.000000E-21  800.000000E-18  100.000000E-18 
          BV                                   43.2                          


               X_U11B.DM1      X_U11B.DM2      X_U11B.DM3      X_U7B.DM1       
          IS   10.000000E-21  800.000000E-18  100.000000E-18   10.000000E-21 
          BV                   43.2                                          


               X_U7B.DM2       X_U7B.DM3       X_U6A.DM1       X_U6A.DM2       
          IS  800.000000E-18  100.000000E-18   10.000000E-21  800.000000E-18 
          BV   43.2                                            43.2          


               X_U6A.DM3       X_U10B.DM1      X_U10B.DM2      X_U10B.DM3      
          IS  100.000000E-18   10.000000E-21  800.000000E-18  100.000000E-18 
          BV                                   43.2                          


**** 05/19/23 02:19:21 ****** PSpice 17.2.0 (March 2016) ****** ID# 0 ********

 ** Profile: "SCHEMATIC1-parametric"  [ c:\users\razvan.cacu\desktop\proiect cad\cad-pspicefiles\schematic1\parametric.sim ] 


 ****     BJT MODEL PARAMETERS


******************************************************************************




               Q2N2222A/ZTX    TIP32           X_U9B.QM1       X_U9B.QM2       
               NPN             PNP             NPN             NPN             
       LEVEL    1               1               1               1            
          IS   30.611000E-15   51.230000E-15  800.000000E-18  804.630000E-18 
          BF  220             434.1            21.429000E+03   30.000000E+03 
          NF    1.00124         1               1               1            
         VAF  104             100                                            
         IKF     .52             .3883                                       
         ISE    7.500000E-15   51.230000E-15                                 
          NE    1.41            1.22                                         
          BR    4              55.47            1               1            
          NR    1.005           1               1               1            
         VAR   28                                                            
         IKR     .24           10.87                                         
         ISC   10.652500E-12   51.230000E-15                                 
          NC    1.3728          1.205                                        
          NK                     .5544                                       
         ISS    0               0               0               0            
          RB     .13             .1                                          
          RE     .22            0               0               0            
          RC     .12             .3443          0               0            
         CJE   27.010000E-12  179.900000E-12    0               0            
         VJE     .75             .75             .75             .75         
         MJE                     .4294                                       
         CJC    9.120000E-12  136.900000E-12    0               0            
         VJC     .4089           .75             .75             .75         
         MJC     .3508           .3155           .33             .33         
        XCJC    1               1               1               1            
         CJS    0               0               0               0            
         VJS     .75             .75             .75             .75         
          TF  325.000000E-12   13.050000E-09                                 
         XTF                    1.573                                        
         VTF                   10                                            
         ITF                    6.85                                         
          TR  100.000000E-09   20.250000E-09                                 
         XTB                    2.2                                          
          KF    0               0               0               0            
          AF    1               1               1               1            
          CN    2.42            2.2             2.42            2.42         
           D     .87             .52             .87             .87         


               X_U9B.QM3       X_U9B.QM4       X_U8B.QM1       X_U8B.QM2       
               NPN             PNP             NPN             NPN             
       LEVEL    1               1               1               1            
          IS  800.000000E-18  800.000000E-18  800.000000E-18  804.630000E-18 
          BF  100             100              21.429000E+03   30.000000E+03 
          NF    1               1               1               1            
          BR    1               1               1               1            
          NR    1               1               1               1            
         ISS    0               0               0               0            
          RE    0               0               0               0            
          RC    0               0               0               0            
         CJE    0               0               0               0            
         VJE     .75             .75             .75             .75         
         CJC    0               0               0               0            
         VJC     .75             .75             .75             .75         
         MJC     .33             .33             .33             .33         
        XCJC    1               1               1               1            
         CJS    0               0               0               0            
         VJS     .75             .75             .75             .75         
          KF    0               0               0               0            
          AF    1               1               1               1            
          CN    2.42            2.2             2.42            2.42         
           D     .87             .52             .87             .87         


               X_U8B.QM3       X_U8B.QM4       X_U11B.QM1      X_U11B.QM2      
               NPN             PNP             NPN             NPN             
       LEVEL    1               1               1               1            
          IS  800.000000E-18  800.000000E-18  800.000000E-18  804.630000E-18 
          BF  100             100              21.429000E+03   30.000000E+03 
          NF    1               1               1               1            
          BR    1               1               1               1            
          NR    1               1               1               1            
         ISS    0               0               0               0            
          RE    0               0               0               0            
          RC    0               0               0               0            
         CJE    0               0               0               0            
         VJE     .75             .75             .75             .75         
         CJC    0               0               0               0            
         VJC     .75             .75             .75             .75         
         MJC     .33             .33             .33             .33         
        XCJC    1               1               1               1            
         CJS    0               0               0               0            
         VJS     .75             .75             .75             .75         
          KF    0               0               0               0            
          AF    1               1               1               1            
          CN    2.42            2.2             2.42            2.42         
           D     .87             .52             .87             .87         


               X_U11B.QM3      X_U11B.QM4      X_U7B.QM1       X_U7B.QM2       
               NPN             PNP             NPN             NPN             
       LEVEL    1               1               1               1            
          IS  800.000000E-18  800.000000E-18  800.000000E-18  804.630000E-18 
          BF  100             100              21.429000E+03   30.000000E+03 
          NF    1               1               1               1            
          BR    1               1               1               1            
          NR    1               1               1               1            
         ISS    0               0               0               0            
          RE    0               0               0               0            
          RC    0               0               0               0            
         CJE    0               0               0               0            
         VJE     .75             .75             .75             .75         
         CJC    0               0               0               0            
         VJC     .75             .75             .75             .75         
         MJC     .33             .33             .33             .33         
        XCJC    1               1               1               1            
         CJS    0               0               0               0            
         VJS     .75             .75             .75             .75         
          KF    0               0               0               0            
          AF    1               1               1               1            
          CN    2.42            2.2             2.42            2.42         
           D     .87             .52             .87             .87         


               X_U7B.QM3       X_U7B.QM4       X_U6A.QM1       X_U6A.QM2       
               NPN             PNP             NPN             NPN             
       LEVEL    1               1               1               1            
          IS  800.000000E-18  800.000000E-18  800.000000E-18  804.630000E-18 
          BF  100             100              21.429000E+03   30.000000E+03 
          NF    1               1               1               1            
          BR    1               1               1               1            
          NR    1               1               1               1            
         ISS    0               0               0               0            
          RE    0               0               0               0            
          RC    0               0               0               0            
         CJE    0               0               0               0            
         VJE     .75             .75             .75             .75         
         CJC    0               0               0               0            
         VJC     .75             .75             .75             .75         
         MJC     .33             .33             .33             .33         
        XCJC    1               1               1               1            
         CJS    0               0               0               0            
         VJS     .75             .75             .75             .75         
          KF    0               0               0               0            
          AF    1               1               1               1            
          CN    2.42            2.2             2.42            2.42         
           D     .87             .52             .87             .87         


               X_U6A.QM3       X_U6A.QM4       X_U10B.QM1      X_U10B.QM2      
               NPN             PNP             NPN             NPN             
       LEVEL    1               1               1               1            
          IS  800.000000E-18  800.000000E-18  800.000000E-18  804.630000E-18 
          BF  100             100              21.429000E+03   30.000000E+03 
          NF    1               1               1               1            
          BR    1               1               1               1            
          NR    1               1               1               1            
         ISS    0               0               0               0            
          RE    0               0               0               0            
          RC    0               0               0               0            
         CJE    0               0               0               0            
         VJE     .75             .75             .75             .75         
         CJC    0               0               0               0            
         VJC     .75             .75             .75             .75         
         MJC     .33             .33             .33             .33         
        XCJC    1               1               1               1            
         CJS    0               0               0               0            
         VJS     .75             .75             .75             .75         
          KF    0               0               0               0            
          AF    1               1               1               1            
          CN    2.42            2.2             2.42            2.42         
           D     .87             .52             .87             .87         


               X_U10B.QM3      X_U10B.QM4      
               NPN             PNP             
       LEVEL    1               1            
          IS  800.000000E-18  800.000000E-18 
          BF  100             100            
          NF    1               1            
          BR    1               1            
          NR    1               1            
         ISS    0               0            
          RE    0               0            
          RC    0               0            
         CJE    0               0            
         VJE     .75             .75         
         CJC    0               0            
         VJC     .75             .75         
         MJC     .33             .33         
        XCJC    1               1            
         CJS    0               0            
         VJS     .75             .75         
          KF    0               0            
          AF    1               1            
          CN    2.42            2.2          
           D     .87             .52         


**** 05/19/23 02:19:21 ****** PSpice 17.2.0 (March 2016) ****** ID# 0 ********

 ** Profile: "SCHEMATIC1-parametric"  [ c:\users\razvan.cacu\desktop\proiect cad\cad-pspicefiles\schematic1\parametric.sim ] 


 ****     Resistor MODEL PARAMETERS


******************************************************************************




               R_R34           R_R31           R_R32           R_R5            
           R    1               1               1               1            


               R_R6            R_R17           R_R8            R_R29           
           R    1               1               1               1            


               R_R30           R_R1            R_R15           R_R28           
           R    1               1               1               1            


               R_R3            R_R7            R_R16           R_R4            
           R    1               1               1               1            


               R_R33           
           R    1            


**** 05/19/23 02:19:21 ****** PSpice 17.2.0 (March 2016) ****** ID# 0 ********

 ** Profile: "SCHEMATIC1-parametric"  [ c:\users\razvan.cacu\desktop\proiect cad\cad-pspicefiles\schematic1\parametric.sim ] 


 ****     Capacitor MODEL PARAMETERS


******************************************************************************




               C_C2            C_C1            
           C    1               1            



          JOB CONCLUDED

**** 05/19/23 02:19:21 ****** PSpice 17.2.0 (March 2016) ****** ID# 0 ********

 ** Profile: "SCHEMATIC1-parametric"  [ c:\users\razvan.cacu\desktop\proiect cad\cad-pspicefiles\schematic1\parametric.sim ] 


 ****     JOB STATISTICS SUMMARY

 ****     CURRENT STEP                     PARAM SET =    1     


******************************************************************************



  Total job time (using Solver 1)   =       10.20
