
**** 05/09/23 22:11:20 ****** PSpice 17.2.0 (March 2016) ****** ID# 0 ********

 ** Profile: "SCHEMATIC1-bias"  [ C:\USERS\RAZVAN.CACU\DESKTOP\CAD\PROIECT\CAD-PSpiceFiles\SCHEMATIC1\bias.sim ] 


 ****     CIRCUIT DESCRIPTION


******************************************************************************




** Creating circuit file "bias.cir" 
** WARNING: THIS AUTOMATICALLY GENERATED FILE MAY BE OVERWRITTEN BY SUBSEQUENT SIMULATIONS

*Libraries: 
* Profile Libraries :
* Local Libraries :
* From [PSPICE NETLIST] section of C:\Users\razvan.cacu\cdssetup\OrCAD_PSpice\17.2.0\PSpice.ini file:
.lib "C:\Users\razvan.cacu\Desktop\OPA847_MODEL.OLB" 
.lib "C:\Users\razvan.cacu\Desktop\CAD\lab7\ex1-PSpiceFiles\SCHEMATIC1\SCHEMATIC1.LIB" 
.lib "nom.lib" 

*Analysis directives: 
.OPTIONS ADVCONV
.PROBE64 V(alias(*)) I(alias(*)) W(alias(*)) D(alias(*)) NOISE(alias(*)) 
.INC "..\SCHEMATIC1.net" 



**** INCLUDING SCHEMATIC1.net ****
* source CAD
X_U10B         OUT_INT N70303 V+ V- N70303 LT1359/LT
R_R3         OUT_INT N68591 R_R3 2k TC=0,0 
.model        R_R3 RES R=1 DEV=5% TC1=0 TC2=0
R_R11         V- N69989 R_R11 1k TC=0,0 
.model        R_R11 RES R=1 DEV=5% TC1=0 TC2=0
V_V2         V- 0 -15V
R_R26         0 OUT_TRIUNGHI R_R26 1k TC=0,0 
.model        R_R26 RES R=1 DEV=5% TC1=0 TC2=0
D_D11         N69149 TRIUNGHI D1N3604 
D_D2         N69219 DREPT D1N3604 
X_P2         N70083 N70093 N70093 POT PARAMS: SET={a} VALUE=4.2k
C_C1         N68509 OUT_INT C_C1 10n  TC=0,0 
.model        C_C1 CAP C=1 DEV=5% TC1=0 TC2=0 VC1=0 VC2=0
X_U8B         N694750 N69275 V+ V- DREPT LT1359/LT
R_R10         0 OUT_DREPT R_R10 5.1 TC=0,0 
.model        R_R10 RES R=1 DEV=5% TC1=0 TC2=0
C_C2         0 DREPT C_C2 10n  TC=0,0 
.model        C_C2 CAP C=1 DEV=10% TC1=0 TC2=0 VC1=0 VC2=0
X_P1         OUT_B N68831 N68831 POT PARAMS: SET={set} VALUE=11.284
R_R5         N69759 N69275 R_R5 16.9k TC=0,0 
.model        R_R5 RES R=1 DEV=2% TC1=0 TC2=0
Q_Q14         V- N69939 N69597 Q2N5193
R_R25         N68711 V+ R_R25 1k TC=0,0 
.model        R_R25 RES R=1 DEV=5% TC1=0 TC2=0
X_U11B         0 N70083 V+ V- TRIUNGHI LT1359/LT
Q_Q13         V- N69597 OUT_TRIUNGHI Q2N5193
R_R8         N70093 TRIUNGHI R_R8 2.5k TC=0,0 
.model        R_R8 RES R=1 DEV=5% TC1=0 TC2=0
R_R18         0 DREPT R_R18 450 TC=0,0 
.model        R_R18 RES R=1 DEV=5% TC1=0 TC2=0
X_U7B         N68591 N69031 V+ V- OUT_B LT1359/LT
R_R7         N70303 N70083 R_R7 8.45k TC=0,0 
.model        R_R7 RES R=1 DEV=1% TC1=0 TC2=0
D_D14         TRIUNGHI N69849 D1N3604 
R_R9         N69219 V+ R_R9 1k TC=0,0 
.model        R_R9 RES R=1 DEV=5% TC1=0 TC2=0
R_R27         V- N69939 R_R27 1k TC=0,0 
.model        R_R27 RES R=1 DEV=5% TC1=0 TC2=0
D_D12         N69849 N69939 D1N3604 
V_V1         V+ 0 15V
D_D10         N68711 N69149 D1N3604 
R_R4         N68591 OUT_B R_R4 2k TC=0,0 
.model        R_R4 RES R=1 DEV=5% TC1=0 TC2=0
R_R16         0 N69001 R_R16 5.1k TC=0,0 
.model        R_R16 RES R=1 DEV=5% TC1=0 TC2=0
Q_Q11         V+ N68711 N68863 Q2N5190
Q_Q6         V- N69989 OUT_DREPT MJE2901K
D_D4         DREPT N69989 D1N3604 
X_U6A         N69001 N68509 V+ V- OUT_INT LT1359/LT
R_R15         0 N69031 R_R15 5.1k TC=0,0 
.model        R_R15 RES R=1 DEV=5% TC1=0 TC2=0
Q_Q12         V+ N68863 OUT_TRIUNGHI Q2N5190
X_U9B         OUT_B N69759 V+ V- N69759 LT1359/LT
R_R6         N69275 DREPT R_R6 5k TC=0,0 
.model        R_R6 RES R=1 DEV=5% TC1=0 TC2=0
R_R1         N68831 N68509 R_R1 2.65 TC=0,0 
.model        R_R1 RES R=1 DEV=5% TC1=0 TC2=0
R_R17         0 N694750 R_R17 3k TC=0,0 
.model        R_R17 RES R=1 DEV=5% TC1=0 TC2=0
Q_Q7         V+ N69219 OUT_DREPT BD220
.IC         V(N68509 )=0
.IC         V(DREPT )=0
.PARAM  a=1 set=1

**** RESUMING bias.cir ****
.END

**** 05/09/23 22:11:20 ****** PSpice 17.2.0 (March 2016) ****** ID# 0 ********

 ** Profile: "SCHEMATIC1-bias"  [ C:\USERS\RAZVAN.CACU\DESKTOP\CAD\PROIECT\CAD-PSpiceFiles\SCHEMATIC1\bias.sim ] 


 ****     Diode MODEL PARAMETERS


******************************************************************************




               D1N3604         X_U10B.DM1      X_U10B.DM2      X_U10B.DM3      
          IS  980.800000E-21   10.000000E-21  800.000000E-18  100.000000E-18 
         ISR   12.270000E-09                                                 
          BV   75                              43.2                          
         IBV    5.000000E-06                                                 
          RS     .1                                                          
          TT    5.771000E-09                                                 
         CJO    2.000000E-12                                                 
          VJ     .75                                                         
           M     .3333                                                       


               X_U8B.DM1       X_U8B.DM2       X_U8B.DM3       X_U11B.DM1      
          IS   10.000000E-21  800.000000E-18  100.000000E-18   10.000000E-21 
          BV                   43.2                                          


               X_U11B.DM2      X_U11B.DM3      X_U7B.DM1       X_U7B.DM2       
          IS  800.000000E-18  100.000000E-18   10.000000E-21  800.000000E-18 
          BV   43.2                                            43.2          


               X_U7B.DM3       X_U6A.DM1       X_U6A.DM2       X_U6A.DM3       
          IS  100.000000E-18   10.000000E-21  800.000000E-18  100.000000E-18 
          BV                                   43.2                          


               X_U9B.DM1       X_U9B.DM2       X_U9B.DM3       
          IS   10.000000E-21  800.000000E-18  100.000000E-18 
          BV                   43.2                          


**** 05/09/23 22:11:20 ****** PSpice 17.2.0 (March 2016) ****** ID# 0 ********

 ** Profile: "SCHEMATIC1-bias"  [ C:\USERS\RAZVAN.CACU\DESKTOP\CAD\PROIECT\CAD-PSpiceFiles\SCHEMATIC1\bias.sim ] 


 ****     BJT MODEL PARAMETERS


******************************************************************************




               Q2N5193         Q2N5190         MJE2901K        BD220           
               PNP             NPN             PNP             NPN             
       LEVEL    1               1               1               1            
          IS  632.400000E-15    1.129000E-12   66.190000E-15    2.447000E-12 
          BF  112.1           161             137.6           208.2          
          NF    1               1               1               1            
         VAF  100             100             100             100            
         IKF    2.187           1.948           1.642            .9743       
         ISE  962.800000E-15   31.170000E-12  862.200000E-15   70.690000E-12 
          NE    1.373           1.557           1.481           1.565        
          BR   66.4             1               5.88           12.59         
          NR    1               1               1               1            
         IKR  125.8              .03134         3.555           3.86         
         ISC  974.400000E-15   23.500000E-12  273.500000E-15   11.680000E-09 
          NC    1.207           1.489           1.24            1.835        
          NK     .6196           .648            .5695           .6134       
         ISS    0               0               0               0            
          RB     .1              .1              .1              .1          
          RE    0               0               0               0            
          RC     .2066           .1682           .07939          .4685       
         CJE  379.800000E-12  286.300000E-12  390.100000E-12  188.500000E-12 
         VJE     .75             .75             .75             .75         
         MJE     .4937           .4961           .4343           .4878       
         CJC  508.900000E-12  251.500000E-12  870.400000E-12  142.000000E-12 
         VJC     .75             .75             .75             .75         
         MJC     .4847           .5045           .6481           .4353       
        XCJC    1               1               1               1            
         CJS    0               0               0               0            
         VJS     .75             .75             .75             .75         
          TF   17.410000E-09   23.640000E-09   23.210000E-09   19.850000E-09 
         XTF    1.062            .3795          5.982           5.945        
         VTF   10              10              10              10            
         ITF    5.921          10.92           71.33          164.1          
          TR   89.170000E-09  810.000000E-09  235.400000E-09  194.200000E-09 
         XTB    2.1             2               2               1.5          
          KF    0               0               0               0            
          AF    1               1               1               1            
          CN    2.2             2.42            2.2             2.42         
           D     .52             .87             .52             .87         


               X_U10B.QM1      X_U10B.QM2      X_U10B.QM3      X_U10B.QM4      
               NPN             NPN             NPN             PNP             
       LEVEL    1               1               1               1            
          IS  800.000000E-18  804.630000E-18  800.000000E-18  800.000000E-18 
          BF   21.429000E+03   30.000000E+03  100             100            
          NF    1               1               1               1            
          BR    1               1               1               1            
          NR    1               1               1               1            
         ISS    0               0               0               0            
          RE    0               0               0               0            
          RC    0               0               0               0            
         CJE    0               0               0               0            
         VJE     .75             .75             .75             .75         
         CJC    0               0               0               0            
         VJC     .75             .75             .75             .75         
         MJC     .33             .33             .33             .33         
        XCJC    1               1               1               1            
         CJS    0               0               0               0            
         VJS     .75             .75             .75             .75         
          KF    0               0               0               0            
          AF    1               1               1               1            
          CN    2.42            2.42            2.42            2.2          
           D     .87             .87             .87             .52         


               X_U8B.QM1       X_U8B.QM2       X_U8B.QM3       X_U8B.QM4       
               NPN             NPN             NPN             PNP             
       LEVEL    1               1               1               1            
          IS  800.000000E-18  804.630000E-18  800.000000E-18  800.000000E-18 
          BF   21.429000E+03   30.000000E+03  100             100            
          NF    1               1               1               1            
          BR    1               1               1               1            
          NR    1               1               1               1            
         ISS    0               0               0               0            
          RE    0               0               0               0            
          RC    0               0               0               0            
         CJE    0               0               0               0            
         VJE     .75             .75             .75             .75         
         CJC    0               0               0               0            
         VJC     .75             .75             .75             .75         
         MJC     .33             .33             .33             .33         
        XCJC    1               1               1               1            
         CJS    0               0               0               0            
         VJS     .75             .75             .75             .75         
          KF    0               0               0               0            
          AF    1               1               1               1            
          CN    2.42            2.42            2.42            2.2          
           D     .87             .87             .87             .52         


               X_U11B.QM1      X_U11B.QM2      X_U11B.QM3      X_U11B.QM4      
               NPN             NPN             NPN             PNP             
       LEVEL    1               1               1               1            
          IS  800.000000E-18  804.630000E-18  800.000000E-18  800.000000E-18 
          BF   21.429000E+03   30.000000E+03  100             100            
          NF    1               1               1               1            
          BR    1               1               1               1            
          NR    1               1               1               1            
         ISS    0               0               0               0            
          RE    0               0               0               0            
          RC    0               0               0               0            
         CJE    0               0               0               0            
         VJE     .75             .75             .75             .75         
         CJC    0               0               0               0            
         VJC     .75             .75             .75             .75         
         MJC     .33             .33             .33             .33         
        XCJC    1               1               1               1            
         CJS    0               0               0               0            
         VJS     .75             .75             .75             .75         
          KF    0               0               0               0            
          AF    1               1               1               1            
          CN    2.42            2.42            2.42            2.2          
           D     .87             .87             .87             .52         


               X_U7B.QM1       X_U7B.QM2       X_U7B.QM3       X_U7B.QM4       
               NPN             NPN             NPN             PNP             
       LEVEL    1               1               1               1            
          IS  800.000000E-18  804.630000E-18  800.000000E-18  800.000000E-18 
          BF   21.429000E+03   30.000000E+03  100             100            
          NF    1               1               1               1            
          BR    1               1               1               1            
          NR    1               1               1               1            
         ISS    0               0               0               0            
          RE    0               0               0               0            
          RC    0               0               0               0            
         CJE    0               0               0               0            
         VJE     .75             .75             .75             .75         
         CJC    0               0               0               0            
         VJC     .75             .75             .75             .75         
         MJC     .33             .33             .33             .33         
        XCJC    1               1               1               1            
         CJS    0               0               0               0            
         VJS     .75             .75             .75             .75         
          KF    0               0               0               0            
          AF    1               1               1               1            
          CN    2.42            2.42            2.42            2.2          
           D     .87             .87             .87             .52         


               X_U6A.QM1       X_U6A.QM2       X_U6A.QM3       X_U6A.QM4       
               NPN             NPN             NPN             PNP             
       LEVEL    1               1               1               1            
          IS  800.000000E-18  804.630000E-18  800.000000E-18  800.000000E-18 
          BF   21.429000E+03   30.000000E+03  100             100            
          NF    1               1               1               1            
          BR    1               1               1               1            
          NR    1               1               1               1            
         ISS    0               0               0               0            
          RE    0               0               0               0            
          RC    0               0               0               0            
         CJE    0               0               0               0            
         VJE     .75             .75             .75             .75         
         CJC    0               0               0               0            
         VJC     .75             .75             .75             .75         
         MJC     .33             .33             .33             .33         
        XCJC    1               1               1               1            
         CJS    0               0               0               0            
         VJS     .75             .75             .75             .75         
          KF    0               0               0               0            
          AF    1               1               1               1            
          CN    2.42            2.42            2.42            2.2          
           D     .87             .87             .87             .52         


               X_U9B.QM1       X_U9B.QM2       X_U9B.QM3       X_U9B.QM4       
               NPN             NPN             NPN             PNP             
       LEVEL    1               1               1               1            
          IS  800.000000E-18  804.630000E-18  800.000000E-18  800.000000E-18 
          BF   21.429000E+03   30.000000E+03  100             100            
          NF    1               1               1               1            
          BR    1               1               1               1            
          NR    1               1               1               1            
         ISS    0               0               0               0            
          RE    0               0               0               0            
          RC    0               0               0               0            
         CJE    0               0               0               0            
         VJE     .75             .75             .75             .75         
         CJC    0               0               0               0            
         VJC     .75             .75             .75             .75         
         MJC     .33             .33             .33             .33         
        XCJC    1               1               1               1            
         CJS    0               0               0               0            
         VJS     .75             .75             .75             .75         
          KF    0               0               0               0            
          AF    1               1               1               1            
          CN    2.42            2.42            2.42            2.2          
           D     .87             .87             .87             .52         


**** 05/09/23 22:11:20 ****** PSpice 17.2.0 (March 2016) ****** ID# 0 ********

 ** Profile: "SCHEMATIC1-bias"  [ C:\USERS\RAZVAN.CACU\DESKTOP\CAD\PROIECT\CAD-PSpiceFiles\SCHEMATIC1\bias.sim ] 


 ****     Resistor MODEL PARAMETERS


******************************************************************************




               R_R3            R_R11           R_R26           R_R10           
           R    1               1               1               1            


               R_R5            R_R25           R_R8            R_R18           
           R    1               1               1               1            


               R_R7            R_R9            R_R27           R_R4            
           R    1               1               1               1            


               R_R16           R_R15           R_R6            R_R1            
           R    1               1               1               1            


               R_R17           
           R    1            


**** 05/09/23 22:11:20 ****** PSpice 17.2.0 (March 2016) ****** ID# 0 ********

 ** Profile: "SCHEMATIC1-bias"  [ C:\USERS\RAZVAN.CACU\DESKTOP\CAD\PROIECT\CAD-PSpiceFiles\SCHEMATIC1\bias.sim ] 


 ****     Capacitor MODEL PARAMETERS


******************************************************************************




               C_C1            C_C2            
           C    1               1            


**** 05/09/23 22:11:20 ****** PSpice 17.2.0 (March 2016) ****** ID# 0 ********

 ** Profile: "SCHEMATIC1-bias"  [ C:\USERS\RAZVAN.CACU\DESKTOP\CAD\PROIECT\CAD-PSpiceFiles\SCHEMATIC1\bias.sim ] 


 ****     SMALL SIGNAL BIAS SOLUTION       TEMPERATURE =   27.000 DEG C


******************************************************************************



 NODE   VOLTAGE     NODE   VOLTAGE     NODE   VOLTAGE     NODE   VOLTAGE


(   V+)   15.0000  (   V-)  -15.0000  (DREPT) 68.70E-06  (OUT_B)    -.1144      

(N68509)-86.24E-06 (N68591)   -2.8416 (N68711)    3.1453 (N68831)    -.1144     

(N68863)    2.4684 (N69001)-503.2E-06 (N69031)    -.0012 (N69149)    2.3966     

(N69219)     .7334 (N69275)    -.0265 (N69597)     .8065 (N69759)    -.1142     

(N69849)     .8839 (N69939)     .1198 (N69989)    -.7389 (N70083) 143.8E-06     

(N70093) 144.5E-06 (N70303)   -5.5683 (N694750)-298.1E-06                       

(OUT_INT)   -5.5688                   (X_U6A.1)   -5.6315                       

(X_U6A.8)   -5.6315                   (X_U7B.1)   -2.0352                       

(X_U7B.8)   -2.0352                   (X_U8B.1)    1.6149                       

(X_U8B.8)    1.6149                   (X_U9B.1)    -.1144                       

(X_U9B.8)    -.1144                   (TRIUNGHI)    1.6479                      

(X_U10B.1)   -5.5986                  (X_U10B.8)   -5.5986                      

(X_U11B.1)    1.8331                  (X_U11B.8)    1.8331                      

(X_U6A.10)    -.7486                  (X_U6A.11)    -.7489                      

(X_U6A.12)   -2.6082                  (X_U6A.13)   -3.7947                      

(X_U6A.14)   -8.8174                  (X_U6A.18)   -5.6067                      

(X_U6A.28) 242.9E-06                  (X_U6A.38) 242.9E-06                      

(X_U6A.48) 242.9E-06                  (X_U6A.58) 242.9E-06                      

(X_U6A.59)    0.0000                  (X_U6A.60)  -15.0000                      

(X_U6A.68) 242.9E-06                  (X_U6A.70)   15.0000                      

(X_U6A.78) 242.9E-06                  (X_U6A.80)   13.1150                      

(X_U6A.90)   13.1150                  (X_U6A.99)   -5.6315                      

(X_U7B.10)    -.7641                  (X_U7B.11)   -3.5533                      

(X_U7B.12)   -4.0050                  (X_U7B.13)    3.1342                      

(X_U7B.14)   -3.3630                  (X_U7B.18)   -1.2765                      

(X_U7B.28)    2.8275                  (X_U7B.38)    2.8275                      

(X_U7B.48)    2.8275                  (X_U7B.58)    2.8275                      

(X_U7B.59)    0.0000                  (X_U7B.60)  -15.0000                      

(X_U7B.68)    2.8275                  (X_U7B.70)   15.0000                      

(X_U7B.78)    2.8275                  (X_U7B.80)   11.7150                      

(X_U7B.90)   14.5420                  (X_U7B.99)   -2.0352                      

(X_U8B.10)    -.7749                  (X_U8B.11)    -.7488                      

(X_U8B.12)   -2.6212                  (X_U8B.13)    3.2487                      

(X_U8B.14)   -3.2485                  (X_U8B.18)     .9770                      

(X_U8B.28)    -.0264                  (X_U8B.38)    -.0264                      

(X_U8B.48)    -.0264                  (X_U8B.58)    -.0264                      

(X_U8B.59)    0.0000                  (X_U8B.60)  -15.0000                      

(X_U8B.68)    -.0264                  (X_U8B.70)   15.0000                      

(X_U8B.78)    -.0264                  (X_U8B.80)   13.1280                      

(X_U8B.90)   13.1020                  (X_U8B.99)    1.6149                      

(X_U9B.10)    -.8627                  (X_U9B.11)    -.8627                      

(X_U9B.12)   -2.7211                  (X_U9B.13)    9.7777                      

(X_U9B.14)   -3.3628                  (X_U9B.18)    -.1143                      

(X_U9B.28) 42.62E-06                  (X_U9B.38) 42.62E-06                      

(X_U9B.48) 42.62E-06                  (X_U9B.58) 42.62E-06                      

(X_U9B.59)    0.0000                  (X_U9B.60)  -15.0000                      

(X_U9B.68) 42.62E-06                  (X_U9B.70)   15.0000                      

(X_U9B.78) 42.62E-06                  (X_U9B.80)   13.1160                      

(X_U9B.90)   13.1160                  (X_U9B.99)    -.1144                      

(OUT_DREPT)     .0400                 (X_U10B.10)   -6.3160                     

(X_U10B.11)   -6.3164                 (X_U10B.12)   -8.1237                     

(X_U10B.13)   -1.0323                 (X_U10B.14)   -8.8169                     

(X_U10B.18)   -5.5866                 (X_U10B.28) 319.6E-06                     

(X_U10B.38) 319.6E-06                 (X_U10B.48) 319.6E-06                     

(X_U10B.58) 319.6E-06                 (X_U10B.59)    0.0000                     

(X_U10B.60)  -15.0000                 (X_U10B.68) 319.6E-06                     

(X_U10B.70)   15.0000                 (X_U10B.78) 319.6E-06                     

(X_U10B.80)   13.1680                 (X_U10B.90)   13.1680                     

(X_U10B.99)   -5.5986                 (X_U11B.10)    -.7484                     

(X_U11B.11)    -.7484                 (X_U11B.12)   -2.6078                     

(X_U11B.13)    4.8965                 (X_U11B.14)   -1.6007                     

(X_U11B.18)    1.7600                 (X_U11B.28)-30.24E-06                     

(X_U11B.38)-30.24E-06                 (X_U11B.48)-30.24E-06                     

(X_U11B.58)-30.24E-06                 (X_U11B.59)    0.0000                     

(X_U11B.60)  -15.0000                 (X_U11B.68)-30.24E-06                     

(X_U11B.70)   15.0000                 (X_U11B.78)-30.24E-06                     

(X_U11B.80)   13.1150                 (X_U11B.90)   13.1150                     

(X_U11B.99)    1.8331                 (X_U6A.131)   15.0000                     

(X_U6A.141)  -15.0000                 (X_U7B.131)   15.0000                     

(X_U7B.141)  -15.0000                 (X_U8B.131)   15.0000                     

(X_U8B.141)  -15.0000                 (X_U9B.131)   15.0000                     

(X_U9B.141)  -15.0000                 (X_U10B.131)   15.0000                    

(X_U10B.141)  -15.0000                (X_U11B.131)   15.0000                    

(X_U11B.141)  -15.0000                (OUT_TRIUNGHI)    1.6373              




    VOLTAGE SOURCE CURRENTS
    NAME         CURRENT

    V_V2         5.655E+00
    V_V1        -5.664E+00
    X_U10B.VC    1.603E-11
    X_U10B.VE    6.183E-12
    X_U8B.VC     1.175E-11
    X_U8B.VE     1.175E-11
    X_U11B.VC    9.152E-12
    X_U11B.VE    1.340E-11
    X_U7B.VC     1.187E-11
    X_U7B.VE     1.164E-11
    X_U6A.VC     1.879E-11
    X_U6A.VE     6.183E-12
    X_U9B.VC     5.222E-12
    X_U9B.VE     1.164E-11

    TOTAL POWER DISSIPATION   1.70E+02  WATTS



          JOB CONCLUDED

**** 05/09/23 22:11:20 ****** PSpice 17.2.0 (March 2016) ****** ID# 0 ********

 ** Profile: "SCHEMATIC1-bias"  [ C:\USERS\RAZVAN.CACU\DESKTOP\CAD\PROIECT\CAD-PSpiceFiles\SCHEMATIC1\bias.sim ] 


 ****     JOB STATISTICS SUMMARY


******************************************************************************



  Total job time (using Solver 1)   =         .03
