
**** 05/19/23 16:54:48 ****** PSpice 17.2.0 (March 2016) ****** ID# 0 ********

 ** Profile: "SCHEMATIC1-termal"  [ c:\users\razvan.cacu\desktop\proiect cad\cad-PSpiceFiles\SCHEMATIC1\termal.sim ] 


 ****     CIRCUIT DESCRIPTION


******************************************************************************




** Creating circuit file "termal.cir" 
** WARNING: THIS AUTOMATICALLY GENERATED FILE MAY BE OVERWRITTEN BY SUBSEQUENT SIMULATIONS

*Libraries: 
* Profile Libraries :
* Local Libraries :
* From [PSPICE NETLIST] section of C:\SPB_Data\cdssetup\OrCAD_PSpice\17.2.0\PSpice.ini file:
.lib "nom.lib" 

*Analysis directives: 
.TRAN  0 1000ns 0 
.TEMP -20 -10 -5 0 10 15 27 50 
.OPTIONS ADVCONV
.PROBE64 V(alias(*)) I(alias(*)) W(alias(*)) D(alias(*)) NOISE(alias(*)) 
.INC "..\SCHEMATIC1.net" 



**** INCLUDING SCHEMATIC1.net ****
* source CAD
R_R34         V- N102589 R_R34 1k TC=0,0 
.model        R_R34 RES R=1 DEV=5% TC1=0 TC2=0
R_R31         V- N103373 R_R31 1k TC=0,0 
.model        R_R31 RES R=1 DEV=5% TC1=0 TC2=0
R_R32         N102343 V+ R_R32 1k TC=0,0 
.model        R_R32 RES R=1 DEV=5% TC1=0 TC2=0
X_U9B         OUT_B N102841 V+ V- N102841 LT1359/LT
R_R5         N102841 N102447 R_R5 8.2k TC=0,0 
.model        R_R5 RES R=1 DEV=2% TC1=0 TC2=0
R_R6         N102447 DREPT R_R6 5.1k TC=0,0 
.model        R_R6 RES R=1 DEV=5% TC1=0 TC2=0
V_V1         V+ 0 15V
R_R17         0 N1026190 R_R17 10k TC=0,0 
.model        R_R17 RES R=1 DEV=5% TC1=0 TC2=0
R_R8         N102971 N102981 R_R8 3.1k TC=0,0 
.model        R_R8 RES R=1 DEV=5% TC1=0 TC2=0
D_D8         DREPT N102589 D1N3604 
R_R29         N102995 V+ R_R29 1k TC=0,0 
.model        R_R29 RES R=1 DEV=5% TC1=0 TC2=0
R_R30         0 OUT_TRI R_R30 25 TC=0,0 
.model        R_R30 RES R=1 DEV=1% TC1=0 TC2=0
X_U8B         N1026190 N102447 V+ V- DREPT LT1359/LT
R_R1         N101971 N101793 R_R1 2.6k TC=0,0 
.model        R_R1 RES R=1 DEV=1% TC1=0 TC2=0
X_U11B         0 N102971 V+ V- N103139 LT1359/LT
X_U7B         N101839 N102217 V+ V- OUT_B LT1359/LT
V_V2         V- 0 -15V
C_C2         0 DREPT C_C2 10n  TC=0,0 
.model        C_C2 CAP C=1 DEV=10% TC1=0 TC2=0 VC1=0 VC2=0
X_U6A         N102163 N101793 V+ V- OUT_INT LT1359/LT
C_C1         N101793 OUT_INT C_C1 10n  TC=0,0 
.model        C_C1 CAP C=1 DEV=10% TC1=0 TC2=0 VC1=0 VC2=0
R_R15         0 N102217 R_R15 5.1k TC=0,0 
.model        R_R15 RES R=1 DEV=5% TC1=0 TC2=0
D_D7         N102343 DREPT D1N3604 
R_R28         0 N102091 R_R28 18k TC=0,0 
.model        R_R28 RES R=1 DEV=5% TC1=0 TC2=0
R_R3         OUT_INT N101839 R_R3 10k TC=0,0 
.model        R_R3 RES R=1 DEV=5% TC1=0 TC2=0
X_P2         N102981 N102981 N103139 POT PARAMS: SET={a} VALUE=1.5k
R_R7         N103225 N102971 R_R7 10k TC=0,0 
.model        R_R7 RES R=1 DEV=5% TC1=0 TC2=0
R_R16         0 N102163 R_R16 5.1k TC=0,0 
.model        R_R16 RES R=1 DEV=5% TC1=0 TC2=0
R_R4         N101839 OUT_B R_R4 10k TC=0,0 
.model        R_R4 RES R=1 DEV=5% TC1=0 TC2=0
R_R33         0 OUT_DREPT R_R33 25 TC=0,0 
.model        R_R33 RES R=1 DEV=1% TC1=0 TC2=0
X_U10B         OUT_INT N103225 V+ V- N103225 LT1359/LT
X_P1         N102091 N101971 OUT_B POT PARAMS: SET={set} VALUE=10k
Q_Q14         V+ N102995 OUT_TRI Q2N2222A/ZTX 
Q_Q15         V- N103373 OUT_TRI TIP32
Q_Q16         V- N102589 OUT_DREPT TIP32
Q_Q17         V+ N102343 OUT_DREPT Q2N2222A/ZTX 
D_D11         N102995 N103139 D1N4148 
D_D12         N103139 N103373 D1N4148 
.IC         V(N101793 )=0
.PARAM  a=0 set=0

**** RESUMING termal.cir ****
.END

**** 05/19/23 16:54:48 ****** PSpice 17.2.0 (March 2016) ****** ID# 0 ********

 ** Profile: "SCHEMATIC1-termal"  [ c:\users\razvan.cacu\desktop\proiect cad\cad-PSpiceFiles\SCHEMATIC1\termal.sim ] 


 ****     Diode MODEL PARAMETERS


******************************************************************************




               D1N3604         D1N4148         X_U9B.DM1       X_U9B.DM2       
          IS  980.800000E-21    2.682000E-09   10.000000E-21  800.000000E-18 
           N                    1.836                                        
         ISR   12.270000E-09    1.565000E-09                                 
         IKF                     .04417                                      
          BV   75             100                              43.2          
         IBV    5.000000E-06  100.000000E-06                                 
          RS     .1              .5664                                       
          TT    5.771000E-09   11.540000E-09                                 
         CJO    2.000000E-12    4.000000E-12                                 
          VJ     .75             .5                                          
           M     .3333           .3333                                       


               X_U9B.DM3       X_U8B.DM1       X_U8B.DM2       X_U8B.DM3       
          IS  100.000000E-18   10.000000E-21  800.000000E-18  100.000000E-18 
          BV                                   43.2                          


               X_U11B.DM1      X_U11B.DM2      X_U11B.DM3      X_U7B.DM1       
          IS   10.000000E-21  800.000000E-18  100.000000E-18   10.000000E-21 
          BV                   43.2                                          


               X_U7B.DM2       X_U7B.DM3       X_U6A.DM1       X_U6A.DM2       
          IS  800.000000E-18  100.000000E-18   10.000000E-21  800.000000E-18 
          BV   43.2                                            43.2          


               X_U6A.DM3       X_U10B.DM1      X_U10B.DM2      X_U10B.DM3      
          IS  100.000000E-18   10.000000E-21  800.000000E-18  100.000000E-18 
          BV                                   43.2                          


**** 05/19/23 16:54:48 ****** PSpice 17.2.0 (March 2016) ****** ID# 0 ********

 ** Profile: "SCHEMATIC1-termal"  [ c:\users\razvan.cacu\desktop\proiect cad\cad-PSpiceFiles\SCHEMATIC1\termal.sim ] 


 ****     BJT MODEL PARAMETERS


******************************************************************************




               Q2N2222A/ZTX    TIP32           X_U9B.QM1       X_U9B.QM2       
               NPN             PNP             NPN             NPN             
       LEVEL    1               1               1               1            
          IS   30.611000E-15   51.230000E-15  800.000000E-18  804.630000E-18 
          BF  220             434.1            21.429000E+03   30.000000E+03 
          NF    1.00124         1               1               1            
         VAF  104             100                                            
         IKF     .52             .3883                                       
         ISE    7.500000E-15   51.230000E-15                                 
          NE    1.41            1.22                                         
          BR    4              55.47            1               1            
          NR    1.005           1               1               1            
         VAR   28                                                            
         IKR     .24           10.87                                         
         ISC   10.652500E-12   51.230000E-15                                 
          NC    1.3728          1.205                                        
          NK                     .5544                                       
         ISS    0               0               0               0            
          RB     .13             .1                                          
          RE     .22            0               0               0            
          RC     .12             .3443          0               0            
         CJE   27.010000E-12  179.900000E-12    0               0            
         VJE     .75             .75             .75             .75         
         MJE                     .4294                                       
         CJC    9.120000E-12  136.900000E-12    0               0            
         VJC     .4089           .75             .75             .75         
         MJC     .3508           .3155           .33             .33         
        XCJC    1               1               1               1            
         CJS    0               0               0               0            
         VJS     .75             .75             .75             .75         
          TF  325.000000E-12   13.050000E-09                                 
         XTF                    1.573                                        
         VTF                   10                                            
         ITF                    6.85                                         
          TR  100.000000E-09   20.250000E-09                                 
         XTB                    2.2                                          
          KF    0               0               0               0            
          AF    1               1               1               1            
          CN    2.42            2.2             2.42            2.42         
           D     .87             .52             .87             .87         


               X_U9B.QM3       X_U9B.QM4       X_U8B.QM1       X_U8B.QM2       
               NPN             PNP             NPN             NPN             
       LEVEL    1               1               1               1            
          IS  800.000000E-18  800.000000E-18  800.000000E-18  804.630000E-18 
          BF  100             100              21.429000E+03   30.000000E+03 
          NF    1               1               1               1            
          BR    1               1               1               1            
          NR    1               1               1               1            
         ISS    0               0               0               0            
          RE    0               0               0               0            
          RC    0               0               0               0            
         CJE    0               0               0               0            
         VJE     .75             .75             .75             .75         
         CJC    0               0               0               0            
         VJC     .75             .75             .75             .75         
         MJC     .33             .33             .33             .33         
        XCJC    1               1               1               1            
         CJS    0               0               0               0            
         VJS     .75             .75             .75             .75         
          KF    0               0               0               0            
          AF    1               1               1               1            
          CN    2.42            2.2             2.42            2.42         
           D     .87             .52             .87             .87         


               X_U8B.QM3       X_U8B.QM4       X_U11B.QM1      X_U11B.QM2      
               NPN             PNP             NPN             NPN             
       LEVEL    1               1               1               1            
          IS  800.000000E-18  800.000000E-18  800.000000E-18  804.630000E-18 
          BF  100             100              21.429000E+03   30.000000E+03 
          NF    1               1               1               1            
          BR    1               1               1               1            
          NR    1               1               1               1            
         ISS    0               0               0               0            
          RE    0               0               0               0            
          RC    0               0               0               0            
         CJE    0               0               0               0            
         VJE     .75             .75             .75             .75         
         CJC    0               0               0               0            
         VJC     .75             .75             .75             .75         
         MJC     .33             .33             .33             .33         
        XCJC    1               1               1               1            
         CJS    0               0               0               0            
         VJS     .75             .75             .75             .75         
          KF    0               0               0               0            
          AF    1               1               1               1            
          CN    2.42            2.2             2.42            2.42         
           D     .87             .52             .87             .87         


               X_U11B.QM3      X_U11B.QM4      X_U7B.QM1       X_U7B.QM2       
               NPN             PNP             NPN             NPN             
       LEVEL    1               1               1               1            
          IS  800.000000E-18  800.000000E-18  800.000000E-18  804.630000E-18 
          BF  100             100              21.429000E+03   30.000000E+03 
          NF    1               1               1               1            
          BR    1               1               1               1            
          NR    1               1               1               1            
         ISS    0               0               0               0            
          RE    0               0               0               0            
          RC    0               0               0               0            
         CJE    0               0               0               0            
         VJE     .75             .75             .75             .75         
         CJC    0               0               0               0            
         VJC     .75             .75             .75             .75         
         MJC     .33             .33             .33             .33         
        XCJC    1               1               1               1            
         CJS    0               0               0               0            
         VJS     .75             .75             .75             .75         
          KF    0               0               0               0            
          AF    1               1               1               1            
          CN    2.42            2.2             2.42            2.42         
           D     .87             .52             .87             .87         


               X_U7B.QM3       X_U7B.QM4       X_U6A.QM1       X_U6A.QM2       
               NPN             PNP             NPN             NPN             
       LEVEL    1               1               1               1            
          IS  800.000000E-18  800.000000E-18  800.000000E-18  804.630000E-18 
          BF  100             100              21.429000E+03   30.000000E+03 
          NF    1               1               1               1            
          BR    1               1               1               1            
          NR    1               1               1               1            
         ISS    0               0               0               0            
          RE    0               0               0               0            
          RC    0               0               0               0            
         CJE    0               0               0               0            
         VJE     .75             .75             .75             .75         
         CJC    0               0               0               0            
         VJC     .75             .75             .75             .75         
         MJC     .33             .33             .33             .33         
        XCJC    1               1               1               1            
         CJS    0               0               0               0            
         VJS     .75             .75             .75             .75         
          KF    0               0               0               0            
          AF    1               1               1               1            
          CN    2.42            2.2             2.42            2.42         
           D     .87             .52             .87             .87         


               X_U6A.QM3       X_U6A.QM4       X_U10B.QM1      X_U10B.QM2      
               NPN             PNP             NPN             NPN             
       LEVEL    1               1               1               1            
          IS  800.000000E-18  800.000000E-18  800.000000E-18  804.630000E-18 
          BF  100             100              21.429000E+03   30.000000E+03 
          NF    1               1               1               1            
          BR    1               1               1               1            
          NR    1               1               1               1            
         ISS    0               0               0               0            
          RE    0               0               0               0            
          RC    0               0               0               0            
         CJE    0               0               0               0            
         VJE     .75             .75             .75             .75         
         CJC    0               0               0               0            
         VJC     .75             .75             .75             .75         
         MJC     .33             .33             .33             .33         
        XCJC    1               1               1               1            
         CJS    0               0               0               0            
         VJS     .75             .75             .75             .75         
          KF    0               0               0               0            
          AF    1               1               1               1            
          CN    2.42            2.2             2.42            2.42         
           D     .87             .52             .87             .87         


               X_U10B.QM3      X_U10B.QM4      
               NPN             PNP             
       LEVEL    1               1            
          IS  800.000000E-18  800.000000E-18 
          BF  100             100            
          NF    1               1            
          BR    1               1            
          NR    1               1            
         ISS    0               0            
          RE    0               0            
          RC    0               0            
         CJE    0               0            
         VJE     .75             .75         
         CJC    0               0            
         VJC     .75             .75         
         MJC     .33             .33         
        XCJC    1               1            
         CJS    0               0            
         VJS     .75             .75         
          KF    0               0            
          AF    1               1            
          CN    2.42            2.2          
           D     .87             .52         


**** 05/19/23 16:54:48 ****** PSpice 17.2.0 (March 2016) ****** ID# 0 ********

 ** Profile: "SCHEMATIC1-termal"  [ c:\users\razvan.cacu\desktop\proiect cad\cad-PSpiceFiles\SCHEMATIC1\termal.sim ] 


 ****     Resistor MODEL PARAMETERS


******************************************************************************




               R_R34           R_R31           R_R32           R_R5            
           R    1               1               1               1            


               R_R6            R_R17           R_R8            R_R29           
           R    1               1               1               1            


               R_R30           R_R1            R_R15           R_R28           
           R    1               1               1               1            


               R_R3            R_R7            R_R16           R_R4            
           R    1               1               1               1            


               R_R33           
           R    1            


**** 05/19/23 16:54:48 ****** PSpice 17.2.0 (March 2016) ****** ID# 0 ********

 ** Profile: "SCHEMATIC1-termal"  [ c:\users\razvan.cacu\desktop\proiect cad\cad-PSpiceFiles\SCHEMATIC1\termal.sim ] 


 ****     Capacitor MODEL PARAMETERS


******************************************************************************




               C_C2            C_C1            
           C    1               1            


**** 05/19/23 16:54:48 ****** PSpice 17.2.0 (March 2016) ****** ID# 0 ********

 ** Profile: "SCHEMATIC1-termal"  [ c:\users\razvan.cacu\desktop\proiect cad\cad-PSpiceFiles\SCHEMATIC1\termal.sim ] 


 ****     TEMPERATURE-ADJUSTED VALUES      TEMPERATURE =  -20.000 DEG C


******************************************************************************




 **** CAPACITORS

                 C_C2 <C_C2>    C_C1 <C_C1>  

          C        1.000E-08      1.000E-08  



 **** DIODE MODEL PARAMETERS

                   D1N3604        D1N4148       X_U9B.DM3   

         IS        2.038E-22      2.648E-11      2.078E-20  
         VJ        8.302E-01      6.193E-01      1.041E+00  
        CJO        1.916E-12      3.657E-12      0.000E+00  
         RS        1.000E-01      5.664E-01      0.000E+00  
        IKF        0.000E+00      4.417E-02      0.000E+00  
         BV        7.500E+01      1.000E+02  

                  X_U9B.DM2      X_U8B.DM3      X_U8B.DM2   

         IS        1.663E-19      2.078E-20      1.663E-19  
         VJ        1.041E+00      1.041E+00      1.041E+00  
        CJO        0.000E+00      0.000E+00      0.000E+00  
         RS        0.000E+00      0.000E+00      0.000E+00  
        IKF        0.000E+00      0.000E+00      0.000E+00  
         BV        4.320E+01                     4.320E+01  

                 X_U11B.DM3     X_U11B.DM2      X_U7B.DM3   

         IS        2.078E-20      1.663E-19      2.078E-20  
         VJ        1.041E+00      1.041E+00      1.041E+00  
        CJO        0.000E+00      0.000E+00      0.000E+00  
         RS        0.000E+00      0.000E+00      0.000E+00  
        IKF        0.000E+00      0.000E+00      0.000E+00  
         BV                       4.320E+01  

                  X_U7B.DM2      X_U6A.DM3      X_U6A.DM2   

         IS        1.663E-19      2.078E-20      1.663E-19  
         VJ        1.041E+00      1.041E+00      1.041E+00  
        CJO        0.000E+00      0.000E+00      0.000E+00  
         RS        0.000E+00      0.000E+00      0.000E+00  
        IKF        0.000E+00      0.000E+00      0.000E+00  
         BV        4.320E+01                     4.320E+01  

                 X_U10B.DM3     X_U10B.DM2                  

         IS        2.078E-20      1.663E-19  
         VJ        1.041E+00      1.041E+00  
        CJO        0.000E+00      0.000E+00  
         RS        0.000E+00      0.000E+00  
        IKF        0.000E+00      0.000E+00  
         BV                       4.320E+01  


 **** BJT MODEL PARAMETERS

                Q2N2222A/ZTX       TIP32        X_U9B.QM1   

         BF        2.200E+02      2.985E+02      2.143E+04  
        ISE        1.834E-17      7.144E-17      0.000E+00  
        VJE        8.302E-01      8.302E-01      8.302E-01  
        CJE        2.589E-11      1.702E-10      0.000E+00  
         RE        2.200E-01      0.000E+00      0.000E+00  
         RB        1.300E-01      1.000E-01      0.000E+00  
         BR        4.000E+00      3.814E+01      1.000E+00  
        ISC        2.214E-14      6.552E-17      0.000E+00  
        VJC        5.425E-01      8.302E-01      8.302E-01  
        CJC        8.015E-12      1.315E-10      0.000E+00  
         RC        1.200E-01      3.443E-01      0.000E+00  
        RBM        1.300E-01      1.000E-01      0.000E+00  
         IS        6.362E-18      1.065E-17      1.663E-19  
        ISS        0.000E+00      0.000E+00      0.000E+00  
        VJS        8.302E-01      8.302E-01      8.302E-01  
        CJS        0.000E+00      0.000E+00      0.000E+00  
      GAMMA        1.000E-11      1.000E-11      1.000E-11  
        RCO        0.000E+00      0.000E+00      0.000E+00  
         VO        1.000E+01      1.000E+01      1.000E+01  

                  X_U9B.QM2      X_U9B.QM3      X_U9B.QM4   

         BF        3.000E+04      1.000E+02      1.000E+02  
        ISE        0.000E+00      0.000E+00      0.000E+00  
        VJE        8.302E-01      8.302E-01      8.302E-01  
        CJE        0.000E+00      0.000E+00      0.000E+00  
         RE        0.000E+00      0.000E+00      0.000E+00  
         RB        0.000E+00      0.000E+00      0.000E+00  
         BR        1.000E+00      1.000E+00      1.000E+00  
        ISC        0.000E+00      0.000E+00      0.000E+00  
        VJC        8.302E-01      8.302E-01      8.302E-01  
        CJC        0.000E+00      0.000E+00      0.000E+00  
         RC        0.000E+00      0.000E+00      0.000E+00  
        RBM        0.000E+00      0.000E+00      0.000E+00  
         IS        1.672E-19      1.663E-19      1.663E-19  
        ISS        0.000E+00      0.000E+00      0.000E+00  
        VJS        8.302E-01      8.302E-01      8.302E-01  
        CJS        0.000E+00      0.000E+00      0.000E+00  
      GAMMA        1.000E-11      1.000E-11      1.000E-11  
        RCO        0.000E+00      0.000E+00      0.000E+00  
         VO        1.000E+01      1.000E+01      1.000E+01  

                  X_U8B.QM1      X_U8B.QM2      X_U8B.QM3   

         BF        2.143E+04      3.000E+04      1.000E+02  
        ISE        0.000E+00      0.000E+00      0.000E+00  
        VJE        8.302E-01      8.302E-01      8.302E-01  
        CJE        0.000E+00      0.000E+00      0.000E+00  
         RE        0.000E+00      0.000E+00      0.000E+00  
         RB        0.000E+00      0.000E+00      0.000E+00  
         BR        1.000E+00      1.000E+00      1.000E+00  
        ISC        0.000E+00      0.000E+00      0.000E+00  
        VJC        8.302E-01      8.302E-01      8.302E-01  
        CJC        0.000E+00      0.000E+00      0.000E+00  
         RC        0.000E+00      0.000E+00      0.000E+00  
        RBM        0.000E+00      0.000E+00      0.000E+00  
         IS        1.663E-19      1.672E-19      1.663E-19  
        ISS        0.000E+00      0.000E+00      0.000E+00  
        VJS        8.302E-01      8.302E-01      8.302E-01  
        CJS        0.000E+00      0.000E+00      0.000E+00  
      GAMMA        1.000E-11      1.000E-11      1.000E-11  
        RCO        0.000E+00      0.000E+00      0.000E+00  
         VO        1.000E+01      1.000E+01      1.000E+01  

                  X_U8B.QM4     X_U11B.QM1     X_U11B.QM2   

         BF        1.000E+02      2.143E+04      3.000E+04  
        ISE        0.000E+00      0.000E+00      0.000E+00  
        VJE        8.302E-01      8.302E-01      8.302E-01  
        CJE        0.000E+00      0.000E+00      0.000E+00  
         RE        0.000E+00      0.000E+00      0.000E+00  
         RB        0.000E+00      0.000E+00      0.000E+00  
         BR        1.000E+00      1.000E+00      1.000E+00  
        ISC        0.000E+00      0.000E+00      0.000E+00  
        VJC        8.302E-01      8.302E-01      8.302E-01  
        CJC        0.000E+00      0.000E+00      0.000E+00  
         RC        0.000E+00      0.000E+00      0.000E+00  
        RBM        0.000E+00      0.000E+00      0.000E+00  
         IS        1.663E-19      1.663E-19      1.672E-19  
        ISS        0.000E+00      0.000E+00      0.000E+00  
        VJS        8.302E-01      8.302E-01      8.302E-01  
        CJS        0.000E+00      0.000E+00      0.000E+00  
      GAMMA        1.000E-11      1.000E-11      1.000E-11  
        RCO        0.000E+00      0.000E+00      0.000E+00  
         VO        1.000E+01      1.000E+01      1.000E+01  

                 X_U11B.QM3     X_U11B.QM4      X_U7B.QM1   

         BF        1.000E+02      1.000E+02      2.143E+04  
        ISE        0.000E+00      0.000E+00      0.000E+00  
        VJE        8.302E-01      8.302E-01      8.302E-01  
        CJE        0.000E+00      0.000E+00      0.000E+00  
         RE        0.000E+00      0.000E+00      0.000E+00  
         RB        0.000E+00      0.000E+00      0.000E+00  
         BR        1.000E+00      1.000E+00      1.000E+00  
        ISC        0.000E+00      0.000E+00      0.000E+00  
        VJC        8.302E-01      8.302E-01      8.302E-01  
        CJC        0.000E+00      0.000E+00      0.000E+00  
         RC        0.000E+00      0.000E+00      0.000E+00  
        RBM        0.000E+00      0.000E+00      0.000E+00  
         IS        1.663E-19      1.663E-19      1.663E-19  
        ISS        0.000E+00      0.000E+00      0.000E+00  
        VJS        8.302E-01      8.302E-01      8.302E-01  
        CJS        0.000E+00      0.000E+00      0.000E+00  
      GAMMA        1.000E-11      1.000E-11      1.000E-11  
        RCO        0.000E+00      0.000E+00      0.000E+00  
         VO        1.000E+01      1.000E+01      1.000E+01  

                  X_U7B.QM2      X_U7B.QM3      X_U7B.QM4   

         BF        3.000E+04      1.000E+02      1.000E+02  
        ISE        0.000E+00      0.000E+00      0.000E+00  
        VJE        8.302E-01      8.302E-01      8.302E-01  
        CJE        0.000E+00      0.000E+00      0.000E+00  
         RE        0.000E+00      0.000E+00      0.000E+00  
         RB        0.000E+00      0.000E+00      0.000E+00  
         BR        1.000E+00      1.000E+00      1.000E+00  
        ISC        0.000E+00      0.000E+00      0.000E+00  
        VJC        8.302E-01      8.302E-01      8.302E-01  
        CJC        0.000E+00      0.000E+00      0.000E+00  
         RC        0.000E+00      0.000E+00      0.000E+00  
        RBM        0.000E+00      0.000E+00      0.000E+00  
         IS        1.672E-19      1.663E-19      1.663E-19  
        ISS        0.000E+00      0.000E+00      0.000E+00  
        VJS        8.302E-01      8.302E-01      8.302E-01  
        CJS        0.000E+00      0.000E+00      0.000E+00  
      GAMMA        1.000E-11      1.000E-11      1.000E-11  
        RCO        0.000E+00      0.000E+00      0.000E+00  
         VO        1.000E+01      1.000E+01      1.000E+01  

                  X_U6A.QM1      X_U6A.QM2      X_U6A.QM3   

         BF        2.143E+04      3.000E+04      1.000E+02  
        ISE        0.000E+00      0.000E+00      0.000E+00  
        VJE        8.302E-01      8.302E-01      8.302E-01  
        CJE        0.000E+00      0.000E+00      0.000E+00  
         RE        0.000E+00      0.000E+00      0.000E+00  
         RB        0.000E+00      0.000E+00      0.000E+00  
         BR        1.000E+00      1.000E+00      1.000E+00  
        ISC        0.000E+00      0.000E+00      0.000E+00  
        VJC        8.302E-01      8.302E-01      8.302E-01  
        CJC        0.000E+00      0.000E+00      0.000E+00  
         RC        0.000E+00      0.000E+00      0.000E+00  
        RBM        0.000E+00      0.000E+00      0.000E+00  
         IS        1.663E-19      1.672E-19      1.663E-19  
        ISS        0.000E+00      0.000E+00      0.000E+00  
        VJS        8.302E-01      8.302E-01      8.302E-01  
        CJS        0.000E+00      0.000E+00      0.000E+00  
      GAMMA        1.000E-11      1.000E-11      1.000E-11  
        RCO        0.000E+00      0.000E+00      0.000E+00  
         VO        1.000E+01      1.000E+01      1.000E+01  

                  X_U6A.QM4     X_U10B.QM1     X_U10B.QM2   

         BF        1.000E+02      2.143E+04      3.000E+04  
        ISE        0.000E+00      0.000E+00      0.000E+00  
        VJE        8.302E-01      8.302E-01      8.302E-01  
        CJE        0.000E+00      0.000E+00      0.000E+00  
         RE        0.000E+00      0.000E+00      0.000E+00  
         RB        0.000E+00      0.000E+00      0.000E+00  
         BR        1.000E+00      1.000E+00      1.000E+00  
        ISC        0.000E+00      0.000E+00      0.000E+00  
        VJC        8.302E-01      8.302E-01      8.302E-01  
        CJC        0.000E+00      0.000E+00      0.000E+00  
         RC        0.000E+00      0.000E+00      0.000E+00  
        RBM        0.000E+00      0.000E+00      0.000E+00  
         IS        1.663E-19      1.663E-19      1.672E-19  
        ISS        0.000E+00      0.000E+00      0.000E+00  
        VJS        8.302E-01      8.302E-01      8.302E-01  
        CJS        0.000E+00      0.000E+00      0.000E+00  
      GAMMA        1.000E-11      1.000E-11      1.000E-11  
        RCO        0.000E+00      0.000E+00      0.000E+00  
         VO        1.000E+01      1.000E+01      1.000E+01  

                 X_U10B.QM3     X_U10B.QM4                  

         BF        1.000E+02      1.000E+02  
        ISE        0.000E+00      0.000E+00  
        VJE        8.302E-01      8.302E-01  
        CJE        0.000E+00      0.000E+00  
         RE        0.000E+00      0.000E+00  
         RB        0.000E+00      0.000E+00  
         BR        1.000E+00      1.000E+00  
        ISC        0.000E+00      0.000E+00  
        VJC        8.302E-01      8.302E-01  
        CJC        0.000E+00      0.000E+00  
         RC        0.000E+00      0.000E+00  
        RBM        0.000E+00      0.000E+00  
         IS        1.663E-19      1.663E-19  
        ISS        0.000E+00      0.000E+00  
        VJS        8.302E-01      8.302E-01  
        CJS        0.000E+00      0.000E+00  
      GAMMA        1.000E-11      1.000E-11  
        RCO        0.000E+00      0.000E+00  
         VO        1.000E+01      1.000E+01  


 **** RESISTORS

                R_R34 <R_R34>  R_R31 <R_R31>  R_R32 <R_R32> 

          R        1.000E+03      1.000E+03      1.000E+03  


                 R_R5 <R_R5>    R_R6 <R_R6>   R_R17 <R_R17> 

          R        8.200E+03      5.100E+03      1.000E+04  


                 R_R8 <R_R8>   R_R29 <R_R29>  R_R30 <R_R30> 

          R        3.100E+03      1.000E+03      2.500E+01  


                 R_R1 <R_R1>   R_R15 <R_R15>  R_R28 <R_R28> 

          R        2.600E+03      5.100E+03      1.800E+04  


                 R_R3 <R_R3>    R_R7 <R_R7>   R_R16 <R_R16> 

          R        1.000E+04      1.000E+04      5.100E+03  


                 R_R4 <R_R4>   R_R33 <R_R33>                

          R        1.000E+04      2.500E+01  



**** 05/19/23 16:54:48 ****** PSpice 17.2.0 (March 2016) ****** ID# 0 ********

 ** Profile: "SCHEMATIC1-termal"  [ c:\users\razvan.cacu\desktop\proiect cad\cad-PSpiceFiles\SCHEMATIC1\termal.sim ] 


 ****     INITIAL TRANSIENT SOLUTION       TEMPERATURE =  -20.000 DEG C


******************************************************************************



 NODE   VOLTAGE     NODE   VOLTAGE     NODE   VOLTAGE     NODE   VOLTAGE


(   V+)   15.0000  (   V-)  -15.0000  (DREPT)   -8.2888  (OUT_B)   13.4120      

(N101793) 10.32E-06                   (N101839)    2.2814                       

(N101971)   13.4120                   (N102091)    8.6220                       

(N102163)-503.1E-06                   (N102217)-281.8E-06                       

(N102343)   -7.4350                   (N102447)-455.3E-06                       

(N102589)   -8.9290                   (N102841)   13.3270                       

(N102971) 76.93E-06                   (N102981)    2.7431                       

(N102995)    3.5428                   (N103139)    2.7431                       

(N103225)   -8.8470                   (N103373)    1.9207                       

(OUT_INT)   -8.8476                   (OUT_TRI)    2.6902                       

(X_U6A.1)   -8.8988                   (X_U6A.8)   -8.8988                       

(X_U7B.1)   13.7770                   (X_U7B.8)   13.7770                       

(X_U8B.1)   -9.3837                   (X_U8B.8)   -9.3837                       

(X_U9B.1)   13.4370                   (X_U9B.8)   13.4370                       

(N1026190)-986.4E-06                  (X_U10B.1)   -8.8877                      

(X_U10B.8)   -8.8877                  (X_U11B.1)    3.0517                      

(X_U11B.8)    3.0517                  (X_U6A.10)    -.8162                      

(X_U6A.11)    -.8166                  (X_U6A.12)   -2.6752                      

(X_U6A.13)   -5.5990                  (X_U6A.14)  -12.0960                      

(X_U6A.18)   -8.8786                  (X_U6A.28) 363.4E-06                      

(X_U6A.38) 363.4E-06                  (X_U6A.48) 363.4E-06                      

(X_U6A.58) 363.4E-06                  (X_U6A.59)    0.0000                      

(X_U6A.60)  -15.0000                  (X_U6A.68) 363.4E-06                      

(X_U6A.70)   15.0000                  (X_U6A.78) 363.4E-06                      

(X_U6A.80)   13.1160                  (X_U6A.90)   13.1160                      

(X_U6A.99)   -8.8988                  (X_U7B.10)    -.7965                      

(X_U7B.11)    1.4549                  (X_U7B.12)   -1.5403                      

(X_U7B.13)   16.6610                  (X_U7B.14)   10.1630                      

(X_U7B.18)   13.6330                  (X_U7B.28)   -2.2823                      

(X_U7B.38)   -2.2823                  (X_U7B.48)   -2.2823                      

(X_U7B.58)   -2.2823                  (X_U7B.59)    0.0000                      

(X_U7B.60)  -15.0000                  (X_U7B.68)   -2.2823                      

(X_U7B.70)   15.0040                  (X_U7B.78)   -2.2823                      

(X_U7B.80)   14.2460                  (X_U7B.90)   11.9640                      

(X_U7B.99)   13.7770                  (X_U8B.10)    -.8167                      

(X_U8B.11)    -.8171                  (X_U8B.12)   -2.6757                      

(X_U8B.13)   -5.0402                  (X_U8B.14)  -11.5370                      

(X_U8B.18)   -8.9512                  (X_U8B.28) 381.2E-06                      

(X_U8B.38) 381.2E-06                  (X_U8B.48) 381.2E-06                      

(X_U8B.58) 381.2E-06                  (X_U8B.59)    0.0000                      

(X_U8B.60)  -15.0000                  (X_U8B.68) 381.2E-06                      

(X_U8B.70)   15.0000                  (X_U8B.78) 381.2E-06                      

(X_U8B.80)   13.1160                  (X_U8B.90)   13.1160                      

(X_U8B.99)   -9.3837                  (X_U9B.10)   12.5100                      

(X_U9B.11)   12.5940                  (X_U9B.12)   10.5680                      

(X_U9B.13)   16.5760                  (X_U9B.14)   10.0790                      

(X_U9B.18)   13.3930                  (X_U9B.28)    -.0853                      

(X_U9B.38)    -.0853                  (X_U9B.48)    -.0853                      

(X_U9B.58)    -.0853                  (X_U9B.59)    0.0000                      

(X_U9B.60)  -15.0000                  (X_U9B.68)    -.0853                      

(X_U9B.70)   15.0000                  (X_U9B.78)    -.0853                      

(X_U9B.80)   13.0320                  (X_U9B.90)   12.9470                      

(X_U9B.99)   13.4370                  (OUT_DREPT)   -8.0872                     

(X_U10B.10)   -9.6623                 (X_U10B.11)   -9.6628                     

(X_U10B.12)  -11.4390                 (X_U10B.13)   -5.5984                     

(X_U10B.14)  -12.0960                 (X_U10B.18)   -8.8716                     

(X_U10B.28) 486.8E-06                 (X_U10B.38) 486.8E-06                     

(X_U10B.48) 486.8E-06                 (X_U10B.58) 486.8E-06                     

(X_U10B.59)    0.0000                 (X_U10B.60)  -15.0000                     

(X_U10B.68) 486.8E-06                 (X_U10B.70)   15.0000                     

(X_U10B.78) 486.8E-06                 (X_U10B.80)   13.1990                     

(X_U10B.90)   13.2000                 (X_U10B.99)   -8.8877                     

(X_U11B.10)    -.8162                 (X_U11B.11)    -.8161                     

(X_U11B.12)   -2.6749                 (X_U11B.13)    5.9917                     

(X_U11B.14)    -.5055                 (X_U11B.18)    2.9298                     

(X_U11B.28)-73.89E-06                 (X_U11B.38)-73.89E-06                     

(X_U11B.48)-73.88E-06                 (X_U11B.58)-73.88E-06                     

(X_U11B.59)    0.0000                 (X_U11B.60)  -15.0000                     

(X_U11B.68)-73.88E-06                 (X_U11B.70)   15.0000                     

(X_U11B.78)-73.88E-06                 (X_U11B.80)   13.1160                     

(X_U11B.90)   13.1160                 (X_U11B.99)    3.0517                     

(X_U6A.131)   15.0000                 (X_U6A.141)  -15.0000                     

(X_U7B.131)   15.8190                 (X_U7B.141)  -15.0000                     

(X_U8B.131)   15.0000                 (X_U8B.141)  -15.0000                     

(X_U9B.131)   15.7440                 (X_U9B.141)  -15.0000                     

(X_U10B.131)   15.0000                (X_U10B.141)  -15.0000                    

(X_U11B.131)   15.0000                (X_U11B.141)  -15.0000                




    VOLTAGE SOURCE CURRENTS
    NAME         CURRENT

    V_V1        -1.754E-01
    V_V2         3.771E-01
    X_U9B.VC    -7.571E-04
    X_U9B.VE     2.508E-11
    X_U8B.VC     1.950E-11
    X_U8B.VE     3.463E-12
    X_U11B.VC    1.019E-11
    X_U11B.VE    1.449E-11
    X_U7B.VC    -1.178E-03
    X_U7B.VE     2.516E-11
    X_U6A.VC     2.060E-11
    X_U6A.VE     2.904E-12
    X_U10B.VC    1.555E-10
    X_U10B.VE    2.904E-12

    TOTAL POWER DISSIPATION   8.29E+00  WATTS


**** 05/19/23 16:54:48 ****** PSpice 17.2.0 (March 2016) ****** ID# 0 ********

 ** Profile: "SCHEMATIC1-termal"  [ c:\users\razvan.cacu\desktop\proiect cad\cad-PSpiceFiles\SCHEMATIC1\termal.sim ] 


 ****     TEMPERATURE-ADJUSTED VALUES      TEMPERATURE =  -10.000 DEG C


******************************************************************************




 **** CAPACITORS

                 C_C2 <C_C2>    C_C1 <C_C1>                 

          C        1.000E-08      1.000E-08  



 **** DIODE MODEL PARAMETERS

                   D1N3604        D1N4148       X_U9B.DM3   

         IS        1.583E-21      8.086E-11      1.614E-19  
         VJ        8.134E-01      5.942E-01      1.033E+00  
        CJO        1.934E-12      3.729E-12      0.000E+00  
         RS        1.000E-01      5.664E-01      0.000E+00  
        IKF        0.000E+00      4.417E-02      0.000E+00  
         BV        7.500E+01      1.000E+02  

                  X_U9B.DM2      X_U8B.DM3      X_U8B.DM2   

         IS        1.291E-18      1.614E-19      1.291E-18  
         VJ        1.033E+00      1.033E+00      1.033E+00  
        CJO        0.000E+00      0.000E+00      0.000E+00  
         RS        0.000E+00      0.000E+00      0.000E+00  
        IKF        0.000E+00      0.000E+00      0.000E+00  
         BV        4.320E+01                     4.320E+01  

                 X_U11B.DM3     X_U11B.DM2      X_U7B.DM3   

         IS        1.614E-19      1.291E-18      1.614E-19  
         VJ        1.033E+00      1.033E+00      1.033E+00  
        CJO        0.000E+00      0.000E+00      0.000E+00  
         RS        0.000E+00      0.000E+00      0.000E+00  
        IKF        0.000E+00      0.000E+00      0.000E+00  
         BV                       4.320E+01  

                  X_U7B.DM2      X_U6A.DM3      X_U6A.DM2   

         IS        1.291E-18      1.614E-19      1.291E-18  
         VJ        1.033E+00      1.033E+00      1.033E+00  
        CJO        0.000E+00      0.000E+00      0.000E+00  
         RS        0.000E+00      0.000E+00      0.000E+00  
        IKF        0.000E+00      0.000E+00      0.000E+00  
         BV        4.320E+01                     4.320E+01  

                 X_U10B.DM3     X_U10B.DM2                  

         IS        1.614E-19      1.291E-18  
         VJ        1.033E+00      1.033E+00  
        CJO        0.000E+00      0.000E+00  
         RS        0.000E+00      0.000E+00  
        IKF        0.000E+00      0.000E+00  
         BV                       4.320E+01  


 **** BJT MODEL PARAMETERS

                Q2N2222A/ZTX       TIP32        X_U9B.QM1   

         BF        2.200E+02      3.250E+02      2.143E+04  
        ISE        7.850E-17      3.521E-16      0.000E+00  
        VJE        8.134E-01      8.134E-01      8.134E-01  
        CJE        2.612E-11      1.722E-10      0.000E+00  
         RE        2.200E-01      0.000E+00      0.000E+00  
         RB        1.300E-01      1.000E-01      0.000E+00  
         BR        4.000E+00      4.153E+01      1.000E+00  
        ISC        9.854E-14      3.297E-16      0.000E+00  
        VJC        5.144E-01      8.134E-01      8.134E-01  
        CJC        8.248E-12      1.326E-10      0.000E+00  
         RC        1.200E-01      3.443E-01      0.000E+00  
        RBM        1.300E-01      1.000E-01      0.000E+00  
         IS        4.941E-17      8.270E-17      1.291E-18  
        ISS        0.000E+00      0.000E+00      0.000E+00  
        VJS        8.134E-01      8.134E-01      8.134E-01  
        CJS        0.000E+00      0.000E+00      0.000E+00  
      GAMMA        1.000E-11      1.000E-11      1.000E-11  
        RCO        0.000E+00      0.000E+00      0.000E+00  
         VO        1.000E+01      1.000E+01      1.000E+01  

                  X_U9B.QM2      X_U9B.QM3      X_U9B.QM4   

         BF        3.000E+04      1.000E+02      1.000E+02  
        ISE        0.000E+00      0.000E+00      0.000E+00  
        VJE        8.134E-01      8.134E-01      8.134E-01  
        CJE        0.000E+00      0.000E+00      0.000E+00  
         RE        0.000E+00      0.000E+00      0.000E+00  
         RB        0.000E+00      0.000E+00      0.000E+00  
         BR        1.000E+00      1.000E+00      1.000E+00  
        ISC        0.000E+00      0.000E+00      0.000E+00  
        VJC        8.134E-01      8.134E-01      8.134E-01  
        CJC        0.000E+00      0.000E+00      0.000E+00  
         RC        0.000E+00      0.000E+00      0.000E+00  
        RBM        0.000E+00      0.000E+00      0.000E+00  
         IS        1.299E-18      1.291E-18      1.291E-18  
        ISS        0.000E+00      0.000E+00      0.000E+00  
        VJS        8.134E-01      8.134E-01      8.134E-01  
        CJS        0.000E+00      0.000E+00      0.000E+00  
      GAMMA        1.000E-11      1.000E-11      1.000E-11  
        RCO        0.000E+00      0.000E+00      0.000E+00  
         VO        1.000E+01      1.000E+01      1.000E+01  

                  X_U8B.QM1      X_U8B.QM2      X_U8B.QM3   

         BF        2.143E+04      3.000E+04      1.000E+02  
        ISE        0.000E+00      0.000E+00      0.000E+00  
        VJE        8.134E-01      8.134E-01      8.134E-01  
        CJE        0.000E+00      0.000E+00      0.000E+00  
         RE        0.000E+00      0.000E+00      0.000E+00  
         RB        0.000E+00      0.000E+00      0.000E+00  
         BR        1.000E+00      1.000E+00      1.000E+00  
        ISC        0.000E+00      0.000E+00      0.000E+00  
        VJC        8.134E-01      8.134E-01      8.134E-01  
        CJC        0.000E+00      0.000E+00      0.000E+00  
         RC        0.000E+00      0.000E+00      0.000E+00  
        RBM        0.000E+00      0.000E+00      0.000E+00  
         IS        1.291E-18      1.299E-18      1.291E-18  
        ISS        0.000E+00      0.000E+00      0.000E+00  
        VJS        8.134E-01      8.134E-01      8.134E-01  
        CJS        0.000E+00      0.000E+00      0.000E+00  
      GAMMA        1.000E-11      1.000E-11      1.000E-11  
        RCO        0.000E+00      0.000E+00      0.000E+00  
         VO        1.000E+01      1.000E+01      1.000E+01  

                  X_U8B.QM4     X_U11B.QM1     X_U11B.QM2   

         BF        1.000E+02      2.143E+04      3.000E+04  
        ISE        0.000E+00      0.000E+00      0.000E+00  
        VJE        8.134E-01      8.134E-01      8.134E-01  
        CJE        0.000E+00      0.000E+00      0.000E+00  
         RE        0.000E+00      0.000E+00      0.000E+00  
         RB        0.000E+00      0.000E+00      0.000E+00  
         BR        1.000E+00      1.000E+00      1.000E+00  
        ISC        0.000E+00      0.000E+00      0.000E+00  
        VJC        8.134E-01      8.134E-01      8.134E-01  
        CJC        0.000E+00      0.000E+00      0.000E+00  
         RC        0.000E+00      0.000E+00      0.000E+00  
        RBM        0.000E+00      0.000E+00      0.000E+00  
         IS        1.291E-18      1.291E-18      1.299E-18  
        ISS        0.000E+00      0.000E+00      0.000E+00  
        VJS        8.134E-01      8.134E-01      8.134E-01  
        CJS        0.000E+00      0.000E+00      0.000E+00  
      GAMMA        1.000E-11      1.000E-11      1.000E-11  
        RCO        0.000E+00      0.000E+00      0.000E+00  
         VO        1.000E+01      1.000E+01      1.000E+01  

                 X_U11B.QM3     X_U11B.QM4      X_U7B.QM1   

         BF        1.000E+02      1.000E+02      2.143E+04  
        ISE        0.000E+00      0.000E+00      0.000E+00  
        VJE        8.134E-01      8.134E-01      8.134E-01  
        CJE        0.000E+00      0.000E+00      0.000E+00  
         RE        0.000E+00      0.000E+00      0.000E+00  
         RB        0.000E+00      0.000E+00      0.000E+00  
         BR        1.000E+00      1.000E+00      1.000E+00  
        ISC        0.000E+00      0.000E+00      0.000E+00  
        VJC        8.134E-01      8.134E-01      8.134E-01  
        CJC        0.000E+00      0.000E+00      0.000E+00  
         RC        0.000E+00      0.000E+00      0.000E+00  
        RBM        0.000E+00      0.000E+00      0.000E+00  
         IS        1.291E-18      1.291E-18      1.291E-18  
        ISS        0.000E+00      0.000E+00      0.000E+00  
        VJS        8.134E-01      8.134E-01      8.134E-01  
        CJS        0.000E+00      0.000E+00      0.000E+00  
      GAMMA        1.000E-11      1.000E-11      1.000E-11  
        RCO        0.000E+00      0.000E+00      0.000E+00  
         VO        1.000E+01      1.000E+01      1.000E+01  

                  X_U7B.QM2      X_U7B.QM3      X_U7B.QM4   

         BF        3.000E+04      1.000E+02      1.000E+02  
        ISE        0.000E+00      0.000E+00      0.000E+00  
        VJE        8.134E-01      8.134E-01      8.134E-01  
        CJE        0.000E+00      0.000E+00      0.000E+00  
         RE        0.000E+00      0.000E+00      0.000E+00  
         RB        0.000E+00      0.000E+00      0.000E+00  
         BR        1.000E+00      1.000E+00      1.000E+00  
        ISC        0.000E+00      0.000E+00      0.000E+00  
        VJC        8.134E-01      8.134E-01      8.134E-01  
        CJC        0.000E+00      0.000E+00      0.000E+00  
         RC        0.000E+00      0.000E+00      0.000E+00  
        RBM        0.000E+00      0.000E+00      0.000E+00  
         IS        1.299E-18      1.291E-18      1.291E-18  
        ISS        0.000E+00      0.000E+00      0.000E+00  
        VJS        8.134E-01      8.134E-01      8.134E-01  
        CJS        0.000E+00      0.000E+00      0.000E+00  
      GAMMA        1.000E-11      1.000E-11      1.000E-11  
        RCO        0.000E+00      0.000E+00      0.000E+00  
         VO        1.000E+01      1.000E+01      1.000E+01  

                  X_U6A.QM1      X_U6A.QM2      X_U6A.QM3   

         BF        2.143E+04      3.000E+04      1.000E+02  
        ISE        0.000E+00      0.000E+00      0.000E+00  
        VJE        8.134E-01      8.134E-01      8.134E-01  
        CJE        0.000E+00      0.000E+00      0.000E+00  
         RE        0.000E+00      0.000E+00      0.000E+00  
         RB        0.000E+00      0.000E+00      0.000E+00  
         BR        1.000E+00      1.000E+00      1.000E+00  
        ISC        0.000E+00      0.000E+00      0.000E+00  
        VJC        8.134E-01      8.134E-01      8.134E-01  
        CJC        0.000E+00      0.000E+00      0.000E+00  
         RC        0.000E+00      0.000E+00      0.000E+00  
        RBM        0.000E+00      0.000E+00      0.000E+00  
         IS        1.291E-18      1.299E-18      1.291E-18  
        ISS        0.000E+00      0.000E+00      0.000E+00  
        VJS        8.134E-01      8.134E-01      8.134E-01  
        CJS        0.000E+00      0.000E+00      0.000E+00  
      GAMMA        1.000E-11      1.000E-11      1.000E-11  
        RCO        0.000E+00      0.000E+00      0.000E+00  
         VO        1.000E+01      1.000E+01      1.000E+01  

                  X_U6A.QM4     X_U10B.QM1     X_U10B.QM2   

         BF        1.000E+02      2.143E+04      3.000E+04  
        ISE        0.000E+00      0.000E+00      0.000E+00  
        VJE        8.134E-01      8.134E-01      8.134E-01  
        CJE        0.000E+00      0.000E+00      0.000E+00  
         RE        0.000E+00      0.000E+00      0.000E+00  
         RB        0.000E+00      0.000E+00      0.000E+00  
         BR        1.000E+00      1.000E+00      1.000E+00  
        ISC        0.000E+00      0.000E+00      0.000E+00  
        VJC        8.134E-01      8.134E-01      8.134E-01  
        CJC        0.000E+00      0.000E+00      0.000E+00  
         RC        0.000E+00      0.000E+00      0.000E+00  
        RBM        0.000E+00      0.000E+00      0.000E+00  
         IS        1.291E-18      1.291E-18      1.299E-18  
        ISS        0.000E+00      0.000E+00      0.000E+00  
        VJS        8.134E-01      8.134E-01      8.134E-01  
        CJS        0.000E+00      0.000E+00      0.000E+00  
      GAMMA        1.000E-11      1.000E-11      1.000E-11  
        RCO        0.000E+00      0.000E+00      0.000E+00  
         VO        1.000E+01      1.000E+01      1.000E+01  

                 X_U10B.QM3     X_U10B.QM4                  

         BF        1.000E+02      1.000E+02  
        ISE        0.000E+00      0.000E+00  
        VJE        8.134E-01      8.134E-01  
        CJE        0.000E+00      0.000E+00  
         RE        0.000E+00      0.000E+00  
         RB        0.000E+00      0.000E+00  
         BR        1.000E+00      1.000E+00  
        ISC        0.000E+00      0.000E+00  
        VJC        8.134E-01      8.134E-01  
        CJC        0.000E+00      0.000E+00  
         RC        0.000E+00      0.000E+00  
        RBM        0.000E+00      0.000E+00  
         IS        1.291E-18      1.291E-18  
        ISS        0.000E+00      0.000E+00  
        VJS        8.134E-01      8.134E-01  
        CJS        0.000E+00      0.000E+00  
      GAMMA        1.000E-11      1.000E-11  
        RCO        0.000E+00      0.000E+00  
         VO        1.000E+01      1.000E+01  


 **** RESISTORS

                R_R34 <R_R34>  R_R31 <R_R31>  R_R32 <R_R32> 

          R        1.000E+03      1.000E+03      1.000E+03  


                 R_R5 <R_R5>    R_R6 <R_R6>   R_R17 <R_R17> 

          R        8.200E+03      5.100E+03      1.000E+04  


                 R_R8 <R_R8>   R_R29 <R_R29>  R_R30 <R_R30> 

          R        3.100E+03      1.000E+03      2.500E+01  


                 R_R1 <R_R1>   R_R15 <R_R15>  R_R28 <R_R28> 

          R        2.600E+03      5.100E+03      1.800E+04  


                 R_R3 <R_R3>    R_R7 <R_R7>   R_R16 <R_R16> 

          R        1.000E+04      1.000E+04      5.100E+03  


                 R_R4 <R_R4>   R_R33 <R_R33>                

          R        1.000E+04      2.500E+01  



**** 05/19/23 16:54:48 ****** PSpice 17.2.0 (March 2016) ****** ID# 0 ********

 ** Profile: "SCHEMATIC1-termal"  [ c:\users\razvan.cacu\desktop\proiect cad\cad-PSpiceFiles\SCHEMATIC1\termal.sim ] 


 ****     INITIAL TRANSIENT SOLUTION       TEMPERATURE =  -10.000 DEG C


******************************************************************************



 NODE   VOLTAGE     NODE   VOLTAGE     NODE   VOLTAGE     NODE   VOLTAGE


(   V+)   15.0000  (   V-)  -15.0000  (DREPT)   -8.2700  (OUT_B)   13.3850      

(N101793) 10.30E-06                   (N101839)    2.3351                       

(N101971)   13.3850                   (N102091)    8.6047                       

(N102163)-503.1E-06                   (N102217)-272.2E-06                       

(N102343)   -7.4293                   (N102447)-451.7E-06                       

(N102589)   -8.9363                   (N102841)   13.2970                       

(N102971) 83.34E-06                   (N102981)    2.7014                       

(N102995)    3.4861                   (N103139)    2.7014                       

(N103225)   -8.7126                   (N103373)    1.8936                       

(OUT_INT)   -8.7132                   (OUT_TRI)    2.6479                       

(X_U6A.1)   -8.7640                   (X_U6A.8)   -8.7640                       

(X_U7B.1)   13.7490                   (X_U7B.8)   13.7490                       

(X_U8B.1)   -9.3446                   (X_U8B.8)   -9.3446                       

(X_U9B.1)   13.4050                   (X_U9B.8)   13.4050                       

(N1026190)-986.5E-06                  (X_U10B.1)   -8.7526                      

(X_U10B.8)   -8.7526                  (X_U11B.1)    3.0061                      

(X_U11B.8)    3.0061                  (X_U6A.10)    -.8020                      

(X_U6A.11)    -.8024                  (X_U6A.12)   -2.6611                      

(X_U6A.13)  -15.4060                  (X_U6A.14)  -11.9620                      

(X_U6A.18)   -8.7440                  (X_U6A.28) 358.3E-06                      

(X_U6A.38) 358.3E-06                  (X_U6A.48) 358.3E-06                      

(X_U6A.58) 358.3E-06                  (X_U6A.59)    0.0000                      

(X_U6A.60)  -15.0000                  (X_U6A.68) 358.3E-06                      

(X_U6A.70)   15.0000                  (X_U6A.78) 358.3E-06                      

(X_U6A.80)   13.1150                  (X_U6A.90)   13.1160                      

(X_U6A.99)   -8.7640                  (X_U7B.10)    -.7807                      

(X_U7B.11)    1.5222                  (X_U7B.12)   -1.4991                      

(X_U7B.13)   16.6340                  (X_U7B.14)   10.1360                      

(X_U7B.18)   13.6050                  (X_U7B.28)   -2.3345                      

(X_U7B.38)   -2.3345                  (X_U7B.48)   -2.3345                      

(X_U7B.58)   -2.3345                  (X_U7B.59)    0.0000                      

(X_U7B.60)  -15.0000                  (X_U7B.68)   -2.3345                      

(X_U7B.70)   15.0040                  (X_U7B.78)   -2.3345                      

(X_U7B.80)   14.2720                  (X_U7B.90)   11.9370                      

(X_U7B.99)   13.7490                  (X_U8B.10)    -.8025                      

(X_U8B.11)    -.8029                  (X_U8B.12)   -2.6616                      

(X_U8B.13)   -5.3931                  (X_U8B.14)  -11.5190                      

(X_U8B.18)   -8.9201                  (X_U8B.28) 379.7E-06                      

(X_U8B.38) 379.7E-06                  (X_U8B.48) 379.7E-06                      

(X_U8B.58) 379.7E-06                  (X_U8B.59)    0.0000                      

(X_U8B.60)  -15.0000                  (X_U8B.68) 379.7E-06                      

(X_U8B.70)   15.0000                  (X_U8B.78) 379.7E-06                      

(X_U8B.80)   13.1150                  (X_U8B.90)   13.1160                      

(X_U8B.99)   -9.3446                  (X_U9B.10)   12.4940                      

(X_U9B.11)   12.5810                  (X_U9B.12)   10.5540                      

(X_U9B.13)   16.5450                  (X_U9B.14)   10.0480                      

(X_U9B.18)   13.3630                  (X_U9B.28)    -.0886                      

(X_U9B.38)    -.0886                  (X_U9B.48)    -.0886                      

(X_U9B.58)    -.0886                  (X_U9B.59)    0.0000                      

(X_U9B.60)  -15.0000                  (X_U9B.68)    -.0886                      

(X_U9B.70)   15.0000                  (X_U9B.78)    -.0886                      

(X_U9B.80)   13.0340                  (X_U9B.90)   12.9450                      

(X_U9B.99)   13.4050                  (OUT_DREPT)   -8.1076                     

(X_U10B.10)   -9.5136                 (X_U10B.11)   -9.5141                     

(X_U10B.12)  -11.2910                 (X_U10B.13)   -6.0000                     

(X_U10B.14)  -11.9610                 (X_U10B.18)   -8.7368                     

(X_U10B.28) 479.8E-06                 (X_U10B.38) 479.8E-06                     

(X_U10B.48) 479.8E-06                 (X_U10B.58) 479.8E-06                     

(X_U10B.59)    0.0000                 (X_U10B.60)  -15.0000                     

(X_U10B.68) 479.8E-06                 (X_U10B.70)   15.0000                     

(X_U10B.78) 479.8E-06                 (X_U10B.80)   13.1980                     

(X_U10B.90)   13.1980                 (X_U10B.99)   -8.7526                     

(X_U11B.10)    -.8019                 (X_U11B.11)    -.8019                     

(X_U11B.12)   -2.6608                 (X_U11B.13)    6.1170                     

(X_U11B.14)    -.5472                 (X_U11B.18)    2.8857                     

(X_U11B.28)-72.41E-06                 (X_U11B.38)-72.41E-06                     

(X_U11B.48)-72.41E-06                 (X_U11B.58)-72.41E-06                     

(X_U11B.59)    0.0000                 (X_U11B.60)  -15.0000                     

(X_U11B.68)-72.41E-06                 (X_U11B.70)   15.0000                     

(X_U11B.78)-72.41E-06                 (X_U11B.80)   13.1160                     

(X_U11B.90)   13.1160                 (X_U11B.99)    3.0061                     

(X_U6A.131)   15.0000                 (X_U6A.141)  -15.0000                     

(X_U7B.131)   15.8050                 (X_U7B.141)  -15.0000                     

(X_U8B.131)   15.0000                 (X_U8B.141)  -15.0000                     

(X_U9B.131)   15.7280                 (X_U9B.141)  -15.0000                     

(X_U10B.131)   15.0000                (X_U10B.141)  -15.0000                    

(X_U11B.131)   15.0000                (X_U11B.141)  -15.0000                




    VOLTAGE SOURCE CURRENTS
    NAME         CURRENT

    V_V1        -1.751E-01
    V_V2         3.798E-01
    X_U9B.VC    -7.414E-04
    X_U9B.VE     2.505E-11
    X_U8B.VC     2.039E-11
    X_U8B.VE     3.481E-12
    X_U11B.VC    1.045E-11
    X_U11B.VE    1.445E-11
    X_U7B.VC    -1.172E-03
    X_U7B.VE     2.514E-11
    X_U6A.VC     2.967E-11
    X_U6A.VE     3.038E-12
    X_U10B.VC    1.790E-11
    X_U10B.VE    3.039E-12

    TOTAL POWER DISSIPATION   8.33E+00  WATTS


**** 05/19/23 16:54:48 ****** PSpice 17.2.0 (March 2016) ****** ID# 0 ********

 ** Profile: "SCHEMATIC1-termal"  [ c:\users\razvan.cacu\desktop\proiect cad\cad-PSpiceFiles\SCHEMATIC1\termal.sim ] 


 ****     TEMPERATURE-ADJUSTED VALUES      TEMPERATURE =   -5.000 DEG C


******************************************************************************




 **** CAPACITORS

                 C_C2 <C_C2>    C_C1 <C_C1>                 

          C        1.000E-08      1.000E-08  



 **** DIODE MODEL PARAMETERS

                   D1N3604        D1N4148       X_U9B.DM3   

         IS        4.173E-21      1.371E-10      4.255E-19  
         VJ        8.050E-01      5.816E-01      1.028E+00  
        CJO        1.943E-12      3.765E-12      0.000E+00  
         RS        1.000E-01      5.664E-01      0.000E+00  
        IKF        0.000E+00      4.417E-02      0.000E+00  
         BV        7.500E+01      1.000E+02  

                  X_U9B.DM2      X_U8B.DM3      X_U8B.DM2   

         IS        3.404E-18      4.255E-19      3.404E-18  
         VJ        1.028E+00      1.028E+00      1.028E+00  
        CJO        0.000E+00      0.000E+00      0.000E+00  
         RS        0.000E+00      0.000E+00      0.000E+00  
        IKF        0.000E+00      0.000E+00      0.000E+00  
         BV        4.320E+01                     4.320E+01  

                 X_U11B.DM3     X_U11B.DM2      X_U7B.DM3   

         IS        4.255E-19      3.404E-18      4.255E-19  
         VJ        1.028E+00      1.028E+00      1.028E+00  
        CJO        0.000E+00      0.000E+00      0.000E+00  
         RS        0.000E+00      0.000E+00      0.000E+00  
        IKF        0.000E+00      0.000E+00      0.000E+00  
         BV                       4.320E+01  

                  X_U7B.DM2      X_U6A.DM3      X_U6A.DM2   

         IS        3.404E-18      4.255E-19      3.404E-18  
         VJ        1.028E+00      1.028E+00      1.028E+00  
        CJO        0.000E+00      0.000E+00      0.000E+00  
         RS        0.000E+00      0.000E+00      0.000E+00  
        IKF        0.000E+00      0.000E+00      0.000E+00  
         BV        4.320E+01                     4.320E+01  

                 X_U10B.DM3     X_U10B.DM2                  

         IS        4.255E-19      3.404E-18  
         VJ        1.028E+00      1.028E+00  
        CJO        0.000E+00      0.000E+00  
         RS        0.000E+00      0.000E+00  
        IKF        0.000E+00      0.000E+00  
         BV                       4.320E+01  


 **** BJT MODEL PARAMETERS

                Q2N2222A/ZTX       TIP32        X_U9B.QM1   

         BF        2.200E+02      3.387E+02      2.143E+04  
        ISE        1.561E-16      7.477E-16      0.000E+00  
        VJE        8.050E-01      8.050E-01      8.050E-01  
        CJE        2.624E-11      1.732E-10      0.000E+00  
         RE        2.200E-01      0.000E+00      0.000E+00  
         RB        1.300E-01      1.000E-01      0.000E+00  
         BR        4.000E+00      4.329E+01      1.000E+00  
        ISC        1.996E-13      7.071E-16      0.000E+00  
        VJC        5.002E-01      8.050E-01      8.050E-01  
        CJC        8.364E-12      1.332E-10      0.000E+00  
         RC        1.200E-01      3.443E-01      0.000E+00  
        RBM        1.300E-01      1.000E-01      0.000E+00  
         IS        1.302E-16      2.180E-16      3.404E-18  
        ISS        0.000E+00      0.000E+00      0.000E+00  
        VJS        8.050E-01      8.050E-01      8.050E-01  
        CJS        0.000E+00      0.000E+00      0.000E+00  
      GAMMA        1.000E-11      1.000E-11      1.000E-11  
        RCO        0.000E+00      0.000E+00      0.000E+00  
         VO        1.000E+01      1.000E+01      1.000E+01  

                  X_U9B.QM2      X_U9B.QM3      X_U9B.QM4   

         BF        3.000E+04      1.000E+02      1.000E+02  
        ISE        0.000E+00      0.000E+00      0.000E+00  
        VJE        8.050E-01      8.050E-01      8.050E-01  
        CJE        0.000E+00      0.000E+00      0.000E+00  
         RE        0.000E+00      0.000E+00      0.000E+00  
         RB        0.000E+00      0.000E+00      0.000E+00  
         BR        1.000E+00      1.000E+00      1.000E+00  
        ISC        0.000E+00      0.000E+00      0.000E+00  
        VJC        8.050E-01      8.050E-01      8.050E-01  
        CJC        0.000E+00      0.000E+00      0.000E+00  
         RC        0.000E+00      0.000E+00      0.000E+00  
        RBM        0.000E+00      0.000E+00      0.000E+00  
         IS        3.424E-18      3.404E-18      3.404E-18  
        ISS        0.000E+00      0.000E+00      0.000E+00  
        VJS        8.050E-01      8.050E-01      8.050E-01  
        CJS        0.000E+00      0.000E+00      0.000E+00  
      GAMMA        1.000E-11      1.000E-11      1.000E-11  
        RCO        0.000E+00      0.000E+00      0.000E+00  
         VO        1.000E+01      1.000E+01      1.000E+01  

                  X_U8B.QM1      X_U8B.QM2      X_U8B.QM3   

         BF        2.143E+04      3.000E+04      1.000E+02  
        ISE        0.000E+00      0.000E+00      0.000E+00  
        VJE        8.050E-01      8.050E-01      8.050E-01  
        CJE        0.000E+00      0.000E+00      0.000E+00  
         RE        0.000E+00      0.000E+00      0.000E+00  
         RB        0.000E+00      0.000E+00      0.000E+00  
         BR        1.000E+00      1.000E+00      1.000E+00  
        ISC        0.000E+00      0.000E+00      0.000E+00  
        VJC        8.050E-01      8.050E-01      8.050E-01  
        CJC        0.000E+00      0.000E+00      0.000E+00  
         RC        0.000E+00      0.000E+00      0.000E+00  
        RBM        0.000E+00      0.000E+00      0.000E+00  
         IS        3.404E-18      3.424E-18      3.404E-18  
        ISS        0.000E+00      0.000E+00      0.000E+00  
        VJS        8.050E-01      8.050E-01      8.050E-01  
        CJS        0.000E+00      0.000E+00      0.000E+00  
      GAMMA        1.000E-11      1.000E-11      1.000E-11  
        RCO        0.000E+00      0.000E+00      0.000E+00  
         VO        1.000E+01      1.000E+01      1.000E+01  

                  X_U8B.QM4     X_U11B.QM1     X_U11B.QM2   

         BF        1.000E+02      2.143E+04      3.000E+04  
        ISE        0.000E+00      0.000E+00      0.000E+00  
        VJE        8.050E-01      8.050E-01      8.050E-01  
        CJE        0.000E+00      0.000E+00      0.000E+00  
         RE        0.000E+00      0.000E+00      0.000E+00  
         RB        0.000E+00      0.000E+00      0.000E+00  
         BR        1.000E+00      1.000E+00      1.000E+00  
        ISC        0.000E+00      0.000E+00      0.000E+00  
        VJC        8.050E-01      8.050E-01      8.050E-01  
        CJC        0.000E+00      0.000E+00      0.000E+00  
         RC        0.000E+00      0.000E+00      0.000E+00  
        RBM        0.000E+00      0.000E+00      0.000E+00  
         IS        3.404E-18      3.404E-18      3.424E-18  
        ISS        0.000E+00      0.000E+00      0.000E+00  
        VJS        8.050E-01      8.050E-01      8.050E-01  
        CJS        0.000E+00      0.000E+00      0.000E+00  
      GAMMA        1.000E-11      1.000E-11      1.000E-11  
        RCO        0.000E+00      0.000E+00      0.000E+00  
         VO        1.000E+01      1.000E+01      1.000E+01  

                 X_U11B.QM3     X_U11B.QM4      X_U7B.QM1   

         BF        1.000E+02      1.000E+02      2.143E+04  
        ISE        0.000E+00      0.000E+00      0.000E+00  
        VJE        8.050E-01      8.050E-01      8.050E-01  
        CJE        0.000E+00      0.000E+00      0.000E+00  
         RE        0.000E+00      0.000E+00      0.000E+00  
         RB        0.000E+00      0.000E+00      0.000E+00  
         BR        1.000E+00      1.000E+00      1.000E+00  
        ISC        0.000E+00      0.000E+00      0.000E+00  
        VJC        8.050E-01      8.050E-01      8.050E-01  
        CJC        0.000E+00      0.000E+00      0.000E+00  
         RC        0.000E+00      0.000E+00      0.000E+00  
        RBM        0.000E+00      0.000E+00      0.000E+00  
         IS        3.404E-18      3.404E-18      3.404E-18  
        ISS        0.000E+00      0.000E+00      0.000E+00  
        VJS        8.050E-01      8.050E-01      8.050E-01  
        CJS        0.000E+00      0.000E+00      0.000E+00  
      GAMMA        1.000E-11      1.000E-11      1.000E-11  
        RCO        0.000E+00      0.000E+00      0.000E+00  
         VO        1.000E+01      1.000E+01      1.000E+01  

                  X_U7B.QM2      X_U7B.QM3      X_U7B.QM4   

         BF        3.000E+04      1.000E+02      1.000E+02  
        ISE        0.000E+00      0.000E+00      0.000E+00  
        VJE        8.050E-01      8.050E-01      8.050E-01  
        CJE        0.000E+00      0.000E+00      0.000E+00  
         RE        0.000E+00      0.000E+00      0.000E+00  
         RB        0.000E+00      0.000E+00      0.000E+00  
         BR        1.000E+00      1.000E+00      1.000E+00  
        ISC        0.000E+00      0.000E+00      0.000E+00  
        VJC        8.050E-01      8.050E-01      8.050E-01  
        CJC        0.000E+00      0.000E+00      0.000E+00  
         RC        0.000E+00      0.000E+00      0.000E+00  
        RBM        0.000E+00      0.000E+00      0.000E+00  
         IS        3.424E-18      3.404E-18      3.404E-18  
        ISS        0.000E+00      0.000E+00      0.000E+00  
        VJS        8.050E-01      8.050E-01      8.050E-01  
        CJS        0.000E+00      0.000E+00      0.000E+00  
      GAMMA        1.000E-11      1.000E-11      1.000E-11  
        RCO        0.000E+00      0.000E+00      0.000E+00  
         VO        1.000E+01      1.000E+01      1.000E+01  

                  X_U6A.QM1      X_U6A.QM2      X_U6A.QM3   

         BF        2.143E+04      3.000E+04      1.000E+02  
        ISE        0.000E+00      0.000E+00      0.000E+00  
        VJE        8.050E-01      8.050E-01      8.050E-01  
        CJE        0.000E+00      0.000E+00      0.000E+00  
         RE        0.000E+00      0.000E+00      0.000E+00  
         RB        0.000E+00      0.000E+00      0.000E+00  
         BR        1.000E+00      1.000E+00      1.000E+00  
        ISC        0.000E+00      0.000E+00      0.000E+00  
        VJC        8.050E-01      8.050E-01      8.050E-01  
        CJC        0.000E+00      0.000E+00      0.000E+00  
         RC        0.000E+00      0.000E+00      0.000E+00  
        RBM        0.000E+00      0.000E+00      0.000E+00  
         IS        3.404E-18      3.424E-18      3.404E-18  
        ISS        0.000E+00      0.000E+00      0.000E+00  
        VJS        8.050E-01      8.050E-01      8.050E-01  
        CJS        0.000E+00      0.000E+00      0.000E+00  
      GAMMA        1.000E-11      1.000E-11      1.000E-11  
        RCO        0.000E+00      0.000E+00      0.000E+00  
         VO        1.000E+01      1.000E+01      1.000E+01  

                  X_U6A.QM4     X_U10B.QM1     X_U10B.QM2   

         BF        1.000E+02      2.143E+04      3.000E+04  
        ISE        0.000E+00      0.000E+00      0.000E+00  
        VJE        8.050E-01      8.050E-01      8.050E-01  
        CJE        0.000E+00      0.000E+00      0.000E+00  
         RE        0.000E+00      0.000E+00      0.000E+00  
         RB        0.000E+00      0.000E+00      0.000E+00  
         BR        1.000E+00      1.000E+00      1.000E+00  
        ISC        0.000E+00      0.000E+00      0.000E+00  
        VJC        8.050E-01      8.050E-01      8.050E-01  
        CJC        0.000E+00      0.000E+00      0.000E+00  
         RC        0.000E+00      0.000E+00      0.000E+00  
        RBM        0.000E+00      0.000E+00      0.000E+00  
         IS        3.404E-18      3.404E-18      3.424E-18  
        ISS        0.000E+00      0.000E+00      0.000E+00  
        VJS        8.050E-01      8.050E-01      8.050E-01  
        CJS        0.000E+00      0.000E+00      0.000E+00  
      GAMMA        1.000E-11      1.000E-11      1.000E-11  
        RCO        0.000E+00      0.000E+00      0.000E+00  
         VO        1.000E+01      1.000E+01      1.000E+01  

                 X_U10B.QM3     X_U10B.QM4                  

         BF        1.000E+02      1.000E+02  
        ISE        0.000E+00      0.000E+00  
        VJE        8.050E-01      8.050E-01  
        CJE        0.000E+00      0.000E+00  
         RE        0.000E+00      0.000E+00  
         RB        0.000E+00      0.000E+00  
         BR        1.000E+00      1.000E+00  
        ISC        0.000E+00      0.000E+00  
        VJC        8.050E-01      8.050E-01  
        CJC        0.000E+00      0.000E+00  
         RC        0.000E+00      0.000E+00  
        RBM        0.000E+00      0.000E+00  
         IS        3.404E-18      3.404E-18  
        ISS        0.000E+00      0.000E+00  
        VJS        8.050E-01      8.050E-01  
        CJS        0.000E+00      0.000E+00  
      GAMMA        1.000E-11      1.000E-11  
        RCO        0.000E+00      0.000E+00  
         VO        1.000E+01      1.000E+01  


 **** RESISTORS

                R_R34 <R_R34>  R_R31 <R_R31>  R_R32 <R_R32> 

          R        1.000E+03      1.000E+03      1.000E+03  


                 R_R5 <R_R5>    R_R6 <R_R6>   R_R17 <R_R17> 

          R        8.200E+03      5.100E+03      1.000E+04  


                 R_R8 <R_R8>   R_R29 <R_R29>  R_R30 <R_R30> 

          R        3.100E+03      1.000E+03      2.500E+01  


                 R_R1 <R_R1>   R_R15 <R_R15>  R_R28 <R_R28> 

          R        2.600E+03      5.100E+03      1.800E+04  


                 R_R3 <R_R3>    R_R7 <R_R7>   R_R16 <R_R16> 

          R        1.000E+04      1.000E+04      5.100E+03  


                 R_R4 <R_R4>   R_R33 <R_R33>                

          R        1.000E+04      2.500E+01  



**** 05/19/23 16:54:48 ****** PSpice 17.2.0 (March 2016) ****** ID# 0 ********

 ** Profile: "SCHEMATIC1-termal"  [ c:\users\razvan.cacu\desktop\proiect cad\cad-PSpiceFiles\SCHEMATIC1\termal.sim ] 


 ****     INITIAL TRANSIENT SOLUTION       TEMPERATURE =   -5.000 DEG C


******************************************************************************



 NODE   VOLTAGE     NODE   VOLTAGE     NODE   VOLTAGE     NODE   VOLTAGE


(   V+)   15.0000  (   V-)  -15.0000  (DREPT)   -8.2605  (OUT_B)   13.3710      

(N101793) 10.29E-06                   (N101839)    2.3619                       

(N101971)   13.3710                   (N102091)    8.5959                       

(N102163)-503.1E-06                   (N102217)-267.4E-06                       

(N102343)   -7.4265                   (N102447)-449.9E-06                       

(N102589)   -8.9305                   (N102841)   13.2820                       

(N102971) 86.54E-06                   (N102981)    2.6806                       

(N102995)    3.4578                   (N103139)    2.6806                       

(N103225)   -8.6454                   (N103373)    1.8802                       

(OUT_INT)   -8.6461                   (OUT_TRI)    2.6268                       

(X_U6A.1)   -8.6967                   (X_U6A.8)   -8.6967                       

(X_U7B.1)   13.7340                   (X_U7B.8)   13.7340                       

(X_U8B.1)   -9.3252                   (X_U8B.8)   -9.3252                       

(X_U9B.1)   13.3900                   (X_U9B.8)   13.3900                       

(N1026190)-986.5E-06                  (X_U10B.1)   -8.6852                      

(X_U10B.8)   -8.6852                  (X_U11B.1)    2.9832                      

(X_U11B.8)    2.9832                  (X_U6A.10)    -.7948                      

(X_U6A.11)    -.7952                  (X_U6A.12)   -2.6540                      

(X_U6A.13)   -5.3975                  (X_U6A.14)  -11.8950                      

(X_U6A.18)   -8.6767                  (X_U6A.28) 355.7E-06                      

(X_U6A.38) 355.7E-06                  (X_U6A.48) 355.7E-06                      

(X_U6A.58) 355.7E-06                  (X_U6A.59)    0.0000                      

(X_U6A.60)  -15.0000                  (X_U6A.68) 355.7E-06                      

(X_U6A.70)   15.0000                  (X_U6A.78) 355.7E-06                      

(X_U6A.80)   13.1150                  (X_U6A.90)   13.1160                      

(X_U6A.99)   -8.6967                  (X_U7B.10)    -.7727                      

(X_U7B.11)    1.5558                  (X_U7B.12)   -1.4785                      

(X_U7B.13)   16.6200                  (X_U7B.14)   10.1230                      

[...]
        IKF        0.000E+00      0.000E+00      0.000E+00  
         BV                       4.320E+01  

                  X_U7B.DM2      X_U6A.DM3      X_U6A.DM2   

         IS        2.118E-14      2.647E-15      2.118E-14  
         VJ        9.787E-01      9.787E-01      9.787E-01  
        CJO        0.000E+00      0.000E+00      0.000E+00  
         RS        0.000E+00      0.000E+00      0.000E+00  
        IKF        0.000E+00      0.000E+00      0.000E+00  
         BV        4.320E+01                     4.320E+01  

                 X_U10B.DM3     X_U10B.DM2                  

         IS        2.647E-15      2.118E-14  
         VJ        9.787E-01      9.787E-01  
        CJO        0.000E+00      0.000E+00  
         RS        0.000E+00      0.000E+00  
        IKF        0.000E+00      0.000E+00  
         BV                       4.320E+01  


 **** BJT MODEL PARAMETERS

                Q2N2222A/ZTX       TIP32        X_U9B.QM1   

         BF        2.200E+02      5.107E+02      2.143E+04  
        ISE        7.658E-14      6.385E-13      0.000E+00  
        VJE        7.095E-01      7.095E-01      7.095E-01  
        CJE        2.757E-11      1.848E-10      0.000E+00  
         RE        2.200E-01      0.000E+00      0.000E+00  
         RB        1.300E-01      1.000E-01      0.000E+00  
         BR        4.000E+00      6.525E+01      1.000E+00  
        ISC        1.158E-10      6.602E-13      0.000E+00  
        VJC        3.423E-01      7.095E-01      7.095E-01  
        CJC        9.670E-12      1.396E-10      0.000E+00  
         RC        1.200E-01      3.443E-01      0.000E+00  
        RBM        1.300E-01      1.000E-01      0.000E+00  
         IS        8.103E-13      1.356E-12      2.118E-14  
        ISS        0.000E+00      0.000E+00      0.000E+00  
        VJS        7.095E-01      7.095E-01      7.095E-01  
        CJS        0.000E+00      0.000E+00      0.000E+00  
      GAMMA        1.000E-11      1.000E-11      1.000E-11  
        RCO        0.000E+00      0.000E+00      0.000E+00  
         VO        1.000E+01      1.000E+01      1.000E+01  

                  X_U9B.QM2      X_U9B.QM3      X_U9B.QM4   

         BF        3.000E+04      1.000E+02      1.000E+02  
        ISE        0.000E+00      0.000E+00      0.000E+00  
        VJE        7.095E-01      7.095E-01      7.095E-01  
        CJE        0.000E+00      0.000E+00      0.000E+00  
         RE        0.000E+00      0.000E+00      0.000E+00  
         RB        0.000E+00      0.000E+00      0.000E+00  
         BR        1.000E+00      1.000E+00      1.000E+00  
        ISC        0.000E+00      0.000E+00      0.000E+00  
        VJC        7.095E-01      7.095E-01      7.095E-01  
        CJC        0.000E+00      0.000E+00      0.000E+00  
         RC        0.000E+00      0.000E+00      0.000E+00  
        RBM        0.000E+00      0.000E+00      0.000E+00  
         IS        2.130E-14      2.118E-14      2.118E-14  
        ISS        0.000E+00      0.000E+00      0.000E+00  
        VJS        7.095E-01      7.095E-01      7.095E-01  
        CJS        0.000E+00      0.000E+00      0.000E+00  
      GAMMA        1.000E-11      1.000E-11      1.000E-11  
        RCO        0.000E+00      0.000E+00      0.000E+00  
         VO        1.000E+01      1.000E+01      1.000E+01  

                  X_U8B.QM1      X_U8B.QM2      X_U8B.QM3   

         BF        2.143E+04      3.000E+04      1.000E+02  
        ISE        0.000E+00      0.000E+00      0.000E+00  
        VJE        7.095E-01      7.095E-01      7.095E-01  
        CJE        0.000E+00      0.000E+00      0.000E+00  
         RE        0.000E+00      0.000E+00      0.000E+00  
         RB        0.000E+00      0.000E+00      0.000E+00  
         BR        1.000E+00      1.000E+00      1.000E+00  
        ISC        0.000E+00      0.000E+00      0.000E+00  
        VJC        7.095E-01      7.095E-01      7.095E-01  
        CJC        0.000E+00      0.000E+00      0.000E+00  
         RC        0.000E+00      0.000E+00      0.000E+00  
        RBM        0.000E+00      0.000E+00      0.000E+00  
         IS        2.118E-14      2.130E-14      2.118E-14  
        ISS        0.000E+00      0.000E+00      0.000E+00  
        VJS        7.095E-01      7.095E-01      7.095E-01  
        CJS        0.000E+00      0.000E+00      0.000E+00  
      GAMMA        1.000E-11      1.000E-11      1.000E-11  
        RCO        0.000E+00      0.000E+00      0.000E+00  
         VO        1.000E+01      1.000E+01      1.000E+01  

                  X_U8B.QM4     X_U11B.QM1     X_U11B.QM2   

         BF        1.000E+02      2.143E+04      3.000E+04  
        ISE        0.000E+00      0.000E+00      0.000E+00  
        VJE        7.095E-01      7.095E-01      7.095E-01  
        CJE        0.000E+00      0.000E+00      0.000E+00  
         RE        0.000E+00      0.000E+00      0.000E+00  
         RB        0.000E+00      0.000E+00      0.000E+00  
         BR        1.000E+00      1.000E+00      1.000E+00  
        ISC        0.000E+00      0.000E+00      0.000E+00  
        VJC        7.095E-01      7.095E-01      7.095E-01  
        CJC        0.000E+00      0.000E+00      0.000E+00  
         RC        0.000E+00      0.000E+00      0.000E+00  
        RBM        0.000E+00      0.000E+00      0.000E+00  
         IS        2.118E-14      2.118E-14      2.130E-14  
        ISS        0.000E+00      0.000E+00      0.000E+00  
        VJS        7.095E-01      7.095E-01      7.095E-01  
        CJS        0.000E+00      0.000E+00      0.000E+00  
      GAMMA        1.000E-11      1.000E-11      1.000E-11  
        RCO        0.000E+00      0.000E+00      0.000E+00  
         VO        1.000E+01      1.000E+01      1.000E+01  

                 X_U11B.QM3     X_U11B.QM4      X_U7B.QM1   

         BF        1.000E+02      1.000E+02      2.143E+04  
        ISE        0.000E+00      0.000E+00      0.000E+00  
        VJE        7.095E-01      7.095E-01      7.095E-01  
        CJE        0.000E+00      0.000E+00      0.000E+00  
         RE        0.000E+00      0.000E+00      0.000E+00  
         RB        0.000E+00      0.000E+00      0.000E+00  
         BR        1.000E+00      1.000E+00      1.000E+00  
        ISC        0.000E+00      0.000E+00      0.000E+00  
        VJC        7.095E-01      7.095E-01      7.095E-01  
        CJC        0.000E+00      0.000E+00      0.000E+00  
         RC        0.000E+00      0.000E+00      0.000E+00  
        RBM        0.000E+00      0.000E+00      0.000E+00  
         IS        2.118E-14      2.118E-14      2.118E-14  
        ISS        0.000E+00      0.000E+00      0.000E+00  
        VJS        7.095E-01      7.095E-01      7.095E-01  
        CJS        0.000E+00      0.000E+00      0.000E+00  
      GAMMA        1.000E-11      1.000E-11      1.000E-11  
        RCO        0.000E+00      0.000E+00      0.000E+00  
         VO        1.000E+01      1.000E+01      1.000E+01  

                  X_U7B.QM2      X_U7B.QM3      X_U7B.QM4   

         BF        3.000E+04      1.000E+02      1.000E+02  
        ISE        0.000E+00      0.000E+00      0.000E+00  
        VJE        7.095E-01      7.095E-01      7.095E-01  
        CJE        0.000E+00      0.000E+00      0.000E+00  
         RE        0.000E+00      0.000E+00      0.000E+00  
         RB        0.000E+00      0.000E+00      0.000E+00  
         BR        1.000E+00      1.000E+00      1.000E+00  
        ISC        0.000E+00      0.000E+00      0.000E+00  
        VJC        7.095E-01      7.095E-01      7.095E-01  
        CJC        0.000E+00      0.000E+00      0.000E+00  
         RC        0.000E+00      0.000E+00      0.000E+00  
        RBM        0.000E+00      0.000E+00      0.000E+00  
         IS        2.130E-14      2.118E-14      2.118E-14  
        ISS        0.000E+00      0.000E+00      0.000E+00  
        VJS        7.095E-01      7.095E-01      7.095E-01  
        CJS        0.000E+00      0.000E+00      0.000E+00  
      GAMMA        1.000E-11      1.000E-11      1.000E-11  
        RCO        0.000E+00      0.000E+00      0.000E+00  
         VO        1.000E+01      1.000E+01      1.000E+01  

                  X_U6A.QM1      X_U6A.QM2      X_U6A.QM3   

         BF        2.143E+04      3.000E+04      1.000E+02  
        ISE        0.000E+00      0.000E+00      0.000E+00  
        VJE        7.095E-01      7.095E-01      7.095E-01  
        CJE        0.000E+00      0.000E+00      0.000E+00  
         RE        0.000E+00      0.000E+00      0.000E+00  
         RB        0.000E+00      0.000E+00      0.000E+00  
         BR        1.000E+00      1.000E+00      1.000E+00  
        ISC        0.000E+00      0.000E+00      0.000E+00  
        VJC        7.095E-01      7.095E-01      7.095E-01  
        CJC        0.000E+00      0.000E+00      0.000E+00  
         RC        0.000E+00      0.000E+00      0.000E+00  
        RBM        0.000E+00      0.000E+00      0.000E+00  
         IS        2.118E-14      2.130E-14      2.118E-14  
        ISS        0.000E+00      0.000E+00      0.000E+00  
        VJS        7.095E-01      7.095E-01      7.095E-01  
        CJS        0.000E+00      0.000E+00      0.000E+00  
      GAMMA        1.000E-11      1.000E-11      1.000E-11  
        RCO        0.000E+00      0.000E+00      0.000E+00  
         VO        1.000E+01      1.000E+01      1.000E+01  

                  X_U6A.QM4     X_U10B.QM1     X_U10B.QM2   

         BF        1.000E+02      2.143E+04      3.000E+04  
        ISE        0.000E+00      0.000E+00      0.000E+00  
        VJE        7.095E-01      7.095E-01      7.095E-01  
        CJE        0.000E+00      0.000E+00      0.000E+00  
         RE        0.000E+00      0.000E+00      0.000E+00  
         RB        0.000E+00      0.000E+00      0.000E+00  
         BR        1.000E+00      1.000E+00      1.000E+00  
        ISC        0.000E+00      0.000E+00      0.000E+00  
        VJC        7.095E-01      7.095E-01      7.095E-01  
        CJC        0.000E+00      0.000E+00      0.000E+00  
         RC        0.000E+00      0.000E+00      0.000E+00  
        RBM        0.000E+00      0.000E+00      0.000E+00  
         IS        2.118E-14      2.118E-14      2.130E-14  
        ISS        0.000E+00      0.000E+00      0.000E+00  
        VJS        7.095E-01      7.095E-01      7.095E-01  
        CJS        0.000E+00      0.000E+00      0.000E+00  
      GAMMA        1.000E-11      1.000E-11      1.000E-11  
        RCO        0.000E+00      0.000E+00      0.000E+00  
         VO        1.000E+01      1.000E+01      1.000E+01  

                 X_U10B.QM3     X_U10B.QM4                  

         BF        1.000E+02      1.000E+02  
        ISE        0.000E+00      0.000E+00  
        VJE        7.095E-01      7.095E-01  
        CJE        0.000E+00      0.000E+00  
         RE        0.000E+00      0.000E+00  
         RB        0.000E+00      0.000E+00  
         BR        1.000E+00      1.000E+00  
        ISC        0.000E+00      0.000E+00  
        VJC        7.095E-01      7.095E-01  
        CJC        0.000E+00      0.000E+00  
         RC        0.000E+00      0.000E+00  
        RBM        0.000E+00      0.000E+00  
         IS        2.118E-14      2.118E-14  
        ISS        0.000E+00      0.000E+00  
        VJS        7.095E-01      7.095E-01  
        CJS        0.000E+00      0.000E+00  
      GAMMA        1.000E-11      1.000E-11  
        RCO        0.000E+00      0.000E+00  
         VO        1.000E+01      1.000E+01  


 **** RESISTORS

                R_R34 <R_R34>  R_R31 <R_R31>  R_R32 <R_R32> 

          R        1.000E+03      1.000E+03      1.000E+03  


                 R_R5 <R_R5>    R_R6 <R_R6>   R_R17 <R_R17> 

          R        8.200E+03      5.100E+03      1.000E+04  


                 R_R8 <R_R8>   R_R29 <R_R29>  R_R30 <R_R30> 

          R        3.100E+03      1.000E+03      2.500E+01  


                 R_R1 <R_R1>   R_R15 <R_R15>  R_R28 <R_R28> 

          R        2.600E+03      5.100E+03      1.800E+04  


                 R_R3 <R_R3>    R_R7 <R_R7>   R_R16 <R_R16> 

          R        1.000E+04      1.000E+04      5.100E+03  


                 R_R4 <R_R4>   R_R33 <R_R33>                

          R        1.000E+04      2.500E+01  



**** 05/19/23 16:54:48 ****** PSpice 17.2.0 (March 2016) ****** ID# 0 ********

 ** Profile: "SCHEMATIC1-termal"  [ c:\users\razvan.cacu\desktop\proiect cad\cad-PSpiceFiles\SCHEMATIC1\termal.sim ] 


 ****     INITIAL TRANSIENT SOLUTION       TEMPERATURE =   50.000 DEG C


******************************************************************************



 NODE   VOLTAGE     NODE   VOLTAGE     NODE   VOLTAGE     NODE   VOLTAGE


(   V+)   15.0000  (   V-)  -15.0000  (DREPT)   -8.1541  (OUT_B)   13.2190      

(N101793) 10.17E-06                   (N101839)    2.6537                       

(N101971)   13.2190                   (N102091)    8.4981                       

(N102163)-503.3E-06                   (N102217)-215.6E-06                       

(N102343)   -7.3967                   (N102447)-415.9E-06                       

(N102589)   -8.7858                   (N102841)   13.1110                       

(N102971) 121.8E-06                   (N102981)    2.4525                       

(N102995)    3.1453                   (N103139)    2.4525                       

(N103225)   -7.9095                   (N103373)    1.7347                       

(OUT_INT)   -7.9101                   (OUT_TRI)    2.3958                       

(X_U6A.1)   -7.9587                   (X_U6A.8)   -7.9587                       

(X_U7B.1)   13.5760                   (X_U7B.8)   13.5760                       

(X_U8B.1)   -9.1325                   (X_U8B.8)   -9.1325                       

(X_U9B.1)   13.2140                   (X_U9B.8)   13.2140                       

(N1026190)-986.9E-06                  (X_U10B.1)   -7.9458                      

(X_U10B.8)   -7.9458                  (X_U11B.1)    2.7324                      

(X_U11B.8)    2.7324                  (X_U6A.10)    -.7146                      

(X_U6A.11)    -.7150                  (X_U6A.12)   -2.5746                      

(X_U6A.13)   -4.6615                  (X_U6A.14)  -11.1590                      

(X_U6A.18)   -7.9395                  (X_U6A.28) 327.6E-06                      

(X_U6A.38) 327.6E-06                  (X_U6A.48) 327.6E-06                      

(X_U6A.58) 327.6E-06                  (X_U6A.59)    0.0000                      

(X_U6A.60)  -15.0000                  (X_U6A.68) 327.6E-06                      

(X_U6A.70)   15.0000                  (X_U6A.78) 327.6E-06                      

(X_U6A.80)   13.1150                  (X_U6A.90)   13.1150                      

(X_U6A.99)   -7.9587                  (X_U7B.10)    -.6819                      

(X_U7B.11)    1.9244                  (X_U7B.12)   -1.2510                      

(X_U7B.13)   16.4680                  (X_U7B.14)    9.9706                      

(X_U7B.18)   13.4350                  (X_U7B.28)   -2.6420                      

(X_U7B.38)   -2.6420                  (X_U7B.48)   -2.6420                      

(X_U7B.58)   -2.6420                  (X_U7B.59)    0.0000                      

(X_U7B.60)  -15.0000                  (X_U7B.68)   -2.6420                      

(X_U7B.70)   15.0040                  (X_U7B.78)   -2.6420                      

(X_U7B.80)   14.4230                  (X_U7B.90)   11.7810                      

(X_U7B.99)   13.5760                  (X_U8B.10)    -.7151                      

(X_U8B.11)    -.7155                  (X_U8B.12)   -2.5750                      

(X_U8B.13)   -4.9055                  (X_U8B.14)  -11.4030                      

(X_U8B.18)   -8.7460                  (X_U8B.28) 385.1E-06                      

(X_U8B.38) 385.1E-06                  (X_U8B.48) 385.1E-06                      

(X_U8B.58) 385.1E-06                  (X_U8B.59)    0.0000                      

(X_U8B.60)  -15.0000                  (X_U8B.68) 385.1E-06                      

(X_U8B.70)   15.0000                  (X_U8B.78) 385.1E-06                      

(X_U8B.80)   13.1150                  (X_U8B.90)   13.1150                      

(X_U8B.99)   -9.1325                  (X_U9B.10)   12.3950                      

(X_U9B.11)   12.5020                  (X_U9B.12)   10.4660                      

(X_U9B.13)   16.3590                  (X_U9B.14)    9.8620                      

(X_U9B.18)   13.1730                  (X_U9B.28)    -.1088                      

(X_U9B.38)    -.1088                  (X_U9B.48)    -.1088                      

(X_U9B.58)    -.1088                  (X_U9B.59)    0.0000                      

(X_U9B.60)  -15.0000                  (X_U9B.68)    -.1088                      

(X_U9B.70)   15.0000                  (X_U9B.78)    -.1088                      

(X_U9B.80)   13.0450                  (X_U9B.90)   12.9360                      

(X_U9B.99)   13.2140                  (OUT_DREPT)   -8.0378                     

(X_U10B.10)   -8.6230                 (X_U10B.11)   -8.6234                     

(X_U10B.12)  -10.4090                 (X_U10B.13)   -4.6609                     

(X_U10B.14)  -11.1580                 (X_U10B.18)   -7.9315                     

(X_U10B.28) 437.8E-06                 (X_U10B.38) 437.8E-06                     

(X_U10B.48) 437.8E-06                 (X_U10B.58) 437.8E-06                     

(X_U10B.59)    0.0000                 (X_U10B.60)  -15.0000                     

(X_U10B.68) 437.8E-06                 (X_U10B.70)   15.0000                     

(X_U10B.78) 437.8E-06                 (X_U10B.80)   13.1890                     

(X_U10B.90)   13.1900                 (X_U10B.99)   -7.9458                     

(X_U11B.10)    -.7145                 (X_U11B.11)    -.7145                     

(X_U11B.12)   -2.5742                 (X_U11B.13)    5.7011                     

(X_U11B.14)    -.7961                 (X_U11B.18)    2.6218                     

(X_U11B.28)-63.62E-06                 (X_U11B.38)-63.62E-06                     

(X_U11B.48)-63.62E-06                 (X_U11B.58)-63.62E-06                     

(X_U11B.59)    0.0000                 (X_U11B.60)  -15.0000                     

(X_U11B.68)-63.62E-06                 (X_U11B.70)   15.0000                     

(X_U11B.78)-63.62E-06                 (X_U11B.80)   13.1150                     

(X_U11B.90)   13.1150                 (X_U11B.99)    2.7324                     

(X_U6A.131)   15.0000                 (X_U6A.141)  -15.0000                     

(X_U7B.131)   15.7220                 (X_U7B.141)  -15.0000                     

(X_U8B.131)   15.0000                 (X_U8B.141)  -15.0000                     

(X_U9B.131)   15.6290                 (X_U9B.141)  -15.0000                     

(X_U10B.131)   15.0000                (X_U10B.141)  -15.0000                    

(X_U11B.131)   15.0000                (X_U11B.141)  -15.0000                




    VOLTAGE SOURCE CURRENTS
    NAME         CURRENT

    V_V1        -1.784E-01
    V_V2         3.918E-01
    X_U9B.VC    -6.460E-04
    X_U9B.VE     2.486E-11
    X_U8B.VC     1.986E-11
    X_U8B.VE     3.600E-12
    X_U11B.VC    1.052E-11
    X_U11B.VE    1.421E-11
    X_U7B.VC    -1.137E-03
    X_U7B.VE     2.497E-11
    X_U6A.VC     2.510E-11
    X_U6A.VE     3.844E-12
    X_U10B.VC    2.118E-11
    X_U10B.VE    3.845E-12

    TOTAL POWER DISSIPATION   8.56E+00  WATTS



          JOB CONCLUDED

**** 05/19/23 16:54:48 ****** PSpice 17.2.0 (March 2016) ****** ID# 0 ********

 ** Profile: "SCHEMATIC1-termal"  [ c:\users\razvan.cacu\desktop\proiect cad\cad-PSpiceFiles\SCHEMATIC1\termal.sim ] 


 ****     JOB STATISTICS SUMMARY


******************************************************************************



  Total job time (using Solver 1)   =         .39
