
**** 05/09/23 16:53:53 ****** PSpice 17.2.0 (March 2016) ****** ID# 0 ********

 ** Profile: "SCHEMATIC1-transient"  [ C:\Users\razvan.cacu\Desktop\CAD\proiect\PROIECT CAD-PSpiceFiles\SCHEMATIC1\transient.sim ] 


 ****     CIRCUIT DESCRIPTION


******************************************************************************




** Creating circuit file "transient.cir" 
** WARNING: THIS AUTOMATICALLY GENERATED FILE MAY BE OVERWRITTEN BY SUBSEQUENT SIMULATIONS

*Libraries: 
* Profile Libraries :
* Local Libraries :
* From [PSPICE NETLIST] section of C:\Users\razvan.cacu\cdssetup\OrCAD_PSpice\17.2.0\PSpice.ini file:
.lib "C:\Users\razvan.cacu\Desktop\OPA847_MODEL.OLB" 
.lib "C:\Users\razvan.cacu\Desktop\CAD\lab7\ex1-PSpiceFiles\SCHEMATIC1\SCHEMATIC1.LIB" 
.lib "nom.lib" 

*Analysis directives: 
.TRAN  0 6ms 0 
.OPTIONS ADVCONV
.PROBE64 V(alias(*)) I(alias(*)) W(alias(*)) D(alias(*)) NOISE(alias(*)) 
.INC "..\SCHEMATIC1.net" 



**** INCLUDING SCHEMATIC1.net ****
* source PROIECT CAD
X_U6A         N64106 N63598 V+ V- OUT_INT LT1359/LT
Q_Q6         V- N65094 OUT_DREPT MJE2901K
R_R27         V- N65044 R_R27 1k TC=0,0 
.model        R_R27 RES R=1 DEV=5% TC1=0 TC2=0
R_R9         N64324 V+ R_R9 1k TC=0,0 
.model        R_R9 RES R=1 DEV=5% TC1=0 TC2=0
D_D4         DREPT N65094 D1N3604 
Q_Q13         V- N64702 OUT_TRIUNGHI Q2N5193
V_V1         V+ 0 15V
R_R7         N65408 N65188 R_R7 8.45k TC=0,0 
.model        R_R7 RES R=1 DEV=1% TC1=0 TC2=0
R_R3         OUT_INT N63692 R_R3 2k TC=0,0 
.model        R_R3 RES R=1 DEV=5% TC1=0 TC2=0
Q_Q11         V+ N63816 N63968 Q2N5190
X_P1         OUT_B N63936 N63936 POT PARAMS: SET={set} VALUE=5.35k
R_R16         0 N64106 R_R16 5.1k TC=0,0 
.model        R_R16 RES R=1 DEV=5% TC1=0 TC2=0
R_R18         0 DREPT R_R18 450 TC=0,0 
.model        R_R18 RES R=1 DEV=5% TC1=0 TC2=0
D_D12         N64954 N65044 D1N3604 
R_R11         V- N65094 R_R11 1k TC=0,0 
.model        R_R11 RES R=1 DEV=5% TC1=0 TC2=0
X_P2         N65188 N65198 N65198 POT PARAMS: SET={a} VALUE=4.2k
R_R25         N63816 V+ R_R25 1k TC=0,0 
.model        R_R25 RES R=1 DEV=5% TC1=0 TC2=0
R_R6         N64380 DREPT R_R6 10k TC=0,0 
.model        R_R6 RES R=1 DEV=5% TC1=0 TC2=0
Q_Q14         V- N65044 N64702 Q2N5193
R_R1         N63936 N63598 R_R1 2.25k TC=0,0 
.model        R_R1 RES R=1 DEV=5% TC1=0 TC2=0
R_R17         0 N645800 R_R17 3k TC=0,0 
.model        R_R17 RES R=1 DEV=5% TC1=0 TC2=0
Q_Q12         V+ N63968 OUT_TRIUNGHI Q2N5190
D_D2         N64324 DREPT D1N3604 
X_U10B         OUT_INT N65408 V+ V- N65408 LT1359/LT
X_U9B         OUT_B N64864 V+ V- N64864 LT1359/LT
X_U7B         N63692 N64136 V+ V- OUT_B LT1359/LT
R_R10         0 OUT_DREPT R_R10 5.1 TC=0,0 
.model        R_R10 RES R=1 DEV=5% TC1=0 TC2=0
X_U8B         N645800 N64380 V+ V- DREPT LT1359/LT
R_R15         0 N64136 R_R15 5.1k TC=0,0 
.model        R_R15 RES R=1 DEV=5% TC1=0 TC2=0
D_D14         TRIUNGHI N64954 D1N3604 
C_C2         0 DREPT C_C2 10n  TC=0,0 
.model        C_C2 CAP C=1 DEV=10% TC1=0 TC2=0 VC1=0 VC2=0
C_C1         N63598 OUT_INT C_C1 10n  TC=0,0 
.model        C_C1 CAP C=1 DEV=5% TC1=0 TC2=0 VC1=0 VC2=0
D_D11         N64254 TRIUNGHI D1N3604 
R_R5         N64864 N64380 R_R5 12.2k TC=0,0 
.model        R_R5 RES R=1 DEV=2% TC1=0 TC2=0
V_V2         V- 0 -15V
X_U11B         0 N65188 V+ V- TRIUNGHI LT1359/LT
Q_Q7         V+ N64324 OUT_DREPT BD220
R_R4         N63692 OUT_B R_R4 2k TC=0,0 
.model        R_R4 RES R=1 DEV=5% TC1=0 TC2=0
R_R8         N65198 TRIUNGHI R_R8 2.5k TC=0,0 
.model        R_R8 RES R=1 DEV=5% TC1=0 TC2=0
R_R26         0 OUT_TRIUNGHI R_R26 1k TC=0,0 
.model        R_R26 RES R=1 DEV=5% TC1=0 TC2=0
D_D10         N63816 N64254 D1N3604 
.IC         V(DREPT )=0
.IC         V(N63598 )=0
.PARAM  a=1 set=0

**** RESUMING transient.cir ****
.END

**** 05/09/23 16:53:53 ****** PSpice 17.2.0 (March 2016) ****** ID# 0 ********

 ** Profile: "SCHEMATIC1-transient"  [ C:\Users\razvan.cacu\Desktop\CAD\proiect\PROIECT CAD-PSpiceFiles\SCHEMATIC1\transient.sim ] 


 ****     Diode MODEL PARAMETERS


******************************************************************************




               D1N3604         X_U6A.DM1       X_U6A.DM2       X_U6A.DM3       
          IS  980.800000E-21   10.000000E-21  800.000000E-18  100.000000E-18 
         ISR   12.270000E-09                                                 
          BV   75                              43.2                          
         IBV    5.000000E-06                                                 
          RS     .1                                                          
          TT    5.771000E-09                                                 
         CJO    2.000000E-12                                                 
          VJ     .75                                                         
           M     .3333                                                       


               X_U10B.DM1      X_U10B.DM2      X_U10B.DM3      X_U9B.DM1       
          IS   10.000000E-21  800.000000E-18  100.000000E-18   10.000000E-21 
          BV                   43.2                                          


               X_U9B.DM2       X_U9B.DM3       X_U7B.DM1       X_U7B.DM2       
          IS  800.000000E-18  100.000000E-18   10.000000E-21  800.000000E-18 
          BV   43.2                                            43.2          


               X_U7B.DM3       X_U8B.DM1       X_U8B.DM2       X_U8B.DM3       
          IS  100.000000E-18   10.000000E-21  800.000000E-18  100.000000E-18 
          BV                                   43.2                          


               X_U11B.DM1      X_U11B.DM2      X_U11B.DM3      
          IS   10.000000E-21  800.000000E-18  100.000000E-18 
          BV                   43.2                          


**** 05/09/23 16:53:53 ****** PSpice 17.2.0 (March 2016) ****** ID# 0 ********

 ** Profile: "SCHEMATIC1-transient"  [ C:\Users\razvan.cacu\Desktop\CAD\proiect\PROIECT CAD-PSpiceFiles\SCHEMATIC1\transient.sim ] 


 ****     BJT MODEL PARAMETERS


******************************************************************************




               MJE2901K        Q2N5193         Q2N5190         BD220           
               PNP             PNP             NPN             NPN             
       LEVEL    1               1               1               1            
          IS   66.190000E-15  632.400000E-15    1.129000E-12    2.447000E-12 
          BF  137.6           112.1           161             208.2          
          NF    1               1               1               1            
         VAF  100             100             100             100            
         IKF    1.642           2.187           1.948            .9743       
         ISE  862.200000E-15  962.800000E-15   31.170000E-12   70.690000E-12 
          NE    1.481           1.373           1.557           1.565        
          BR    5.88           66.4             1              12.59         
          NR    1               1               1               1            
         IKR    3.555         125.8              .03134         3.86         
         ISC  273.500000E-15  974.400000E-15   23.500000E-12   11.680000E-09 
          NC    1.24            1.207           1.489           1.835        
          NK     .5695           .6196           .648            .6134       
         ISS    0               0               0               0            
          RB     .1              .1              .1              .1          
          RE    0               0               0               0            
          RC     .07939          .2066           .1682           .4685       
         CJE  390.100000E-12  379.800000E-12  286.300000E-12  188.500000E-12 
         VJE     .75             .75             .75             .75         
         MJE     .4343           .4937           .4961           .4878       
         CJC  870.400000E-12  508.900000E-12  251.500000E-12  142.000000E-12 
         VJC     .75             .75             .75             .75         
         MJC     .6481           .4847           .5045           .4353       
        XCJC    1               1               1               1            
         CJS    0               0               0               0            
         VJS     .75             .75             .75             .75         
          TF   23.210000E-09   17.410000E-09   23.640000E-09   19.850000E-09 
         XTF    5.982           1.062            .3795          5.945        
         VTF   10              10              10              10            
         ITF   71.33            5.921          10.92          164.1          
          TR  235.400000E-09   89.170000E-09  810.000000E-09  194.200000E-09 
         XTB    2               2.1             2               1.5          
          KF    0               0               0               0            
          AF    1               1               1               1            
          CN    2.2             2.2             2.42            2.42         
           D     .52             .52             .87             .87         


               X_U6A.QM1       X_U6A.QM2       X_U6A.QM3       X_U6A.QM4       
               NPN             NPN             NPN             PNP             
       LEVEL    1               1               1               1            
          IS  800.000000E-18  804.630000E-18  800.000000E-18  800.000000E-18 
          BF   21.429000E+03   30.000000E+03  100             100            
          NF    1               1               1               1            
          BR    1               1               1               1            
          NR    1               1               1               1            
         ISS    0               0               0               0            
          RE    0               0               0               0            
          RC    0               0               0               0            
         CJE    0               0               0               0            
         VJE     .75             .75             .75             .75         
         CJC    0               0               0               0            
         VJC     .75             .75             .75             .75         
         MJC     .33             .33             .33             .33         
        XCJC    1               1               1               1            
         CJS    0               0               0               0            
         VJS     .75             .75             .75             .75         
          KF    0               0               0               0            
          AF    1               1               1               1            
          CN    2.42            2.42            2.42            2.2          
           D     .87             .87             .87             .52         


               X_U10B.QM1      X_U10B.QM2      X_U10B.QM3      X_U10B.QM4      
               NPN             NPN             NPN             PNP             
       LEVEL    1               1               1               1            
          IS  800.000000E-18  804.630000E-18  800.000000E-18  800.000000E-18 
          BF   21.429000E+03   30.000000E+03  100             100            
          NF    1               1               1               1            
          BR    1               1               1               1            
          NR    1               1               1               1            
         ISS    0               0               0               0            
          RE    0               0               0               0            
          RC    0               0               0               0            
         CJE    0               0               0               0            
         VJE     .75             .75             .75             .75         
         CJC    0               0               0               0            
         VJC     .75             .75             .75             .75         
         MJC     .33             .33             .33             .33         
        XCJC    1               1               1               1            
         CJS    0               0               0               0            
         VJS     .75             .75             .75             .75         
          KF    0               0               0               0            
          AF    1               1               1               1            
          CN    2.42            2.42            2.42            2.2          
           D     .87             .87             .87             .52         


               X_U9B.QM1       X_U9B.QM2       X_U9B.QM3       X_U9B.QM4       
               NPN             NPN             NPN             PNP             
       LEVEL    1               1               1               1            
          IS  800.000000E-18  804.630000E-18  800.000000E-18  800.000000E-18 
          BF   21.429000E+03   30.000000E+03  100             100            
          NF    1               1               1               1            
          BR    1               1               1               1            
          NR    1               1               1               1            
         ISS    0               0               0               0            
          RE    0               0               0               0            
          RC    0               0               0               0            
         CJE    0               0               0               0            
         VJE     .75             .75             .75             .75         
         CJC    0               0               0               0            
         VJC     .75             .75             .75             .75         
         MJC     .33             .33             .33             .33         
        XCJC    1               1               1               1            
         CJS    0               0               0               0            
         VJS     .75             .75             .75             .75         
          KF    0               0               0               0            
          AF    1               1               1               1            
          CN    2.42            2.42            2.42            2.2          
           D     .87             .87             .87             .52         


               X_U7B.QM1       X_U7B.QM2       X_U7B.QM3       X_U7B.QM4       
               NPN             NPN             NPN             PNP             
       LEVEL    1               1               1               1            
          IS  800.000000E-18  804.630000E-18  800.000000E-18  800.000000E-18 
          BF   21.429000E+03   30.000000E+03  100             100            
          NF    1               1               1               1            
          BR    1               1               1               1            
          NR    1               1               1               1            
         ISS    0               0               0               0            
          RE    0               0               0               0            
          RC    0               0               0               0            
         CJE    0               0               0               0            
         VJE     .75             .75             .75             .75         
         CJC    0               0               0               0            
         VJC     .75             .75             .75             .75         
         MJC     .33             .33             .33             .33         
        XCJC    1               1               1               1            
         CJS    0               0               0               0            
         VJS     .75             .75             .75             .75         
          KF    0               0               0               0            
          AF    1               1               1               1            
          CN    2.42            2.42            2.42            2.2          
           D     .87             .87             .87             .52         


               X_U8B.QM1       X_U8B.QM2       X_U8B.QM3       X_U8B.QM4       
               NPN             NPN             NPN             PNP             
       LEVEL    1               1               1               1            
          IS  800.000000E-18  804.630000E-18  800.000000E-18  800.000000E-18 
          BF   21.429000E+03   30.000000E+03  100             100            
          NF    1               1               1               1            
          BR    1               1               1               1            
          NR    1               1               1               1            
         ISS    0               0               0               0            
          RE    0               0               0               0            
          RC    0               0               0               0            
         CJE    0               0               0               0            
         VJE     .75             .75             .75             .75         
         CJC    0               0               0               0            
         VJC     .75             .75             .75             .75         
         MJC     .33             .33             .33             .33         
        XCJC    1               1               1               1            
         CJS    0               0               0               0            
         VJS     .75             .75             .75             .75         
          KF    0               0               0               0            
          AF    1               1               1               1            
          CN    2.42            2.42            2.42            2.2          
           D     .87             .87             .87             .52         


               X_U11B.QM1      X_U11B.QM2      X_U11B.QM3      X_U11B.QM4      
               NPN             NPN             NPN             PNP             
       LEVEL    1               1               1               1            
          IS  800.000000E-18  804.630000E-18  800.000000E-18  800.000000E-18 
          BF   21.429000E+03   30.000000E+03  100             100            
          NF    1               1               1               1            
          BR    1               1               1               1            
          NR    1               1               1               1            
         ISS    0               0               0               0            
          RE    0               0               0               0            
          RC    0               0               0               0            
         CJE    0               0               0               0            
         VJE     .75             .75             .75             .75         
         CJC    0               0               0               0            
         VJC     .75             .75             .75             .75         
         MJC     .33             .33             .33             .33         
        XCJC    1               1               1               1            
         CJS    0               0               0               0            
         VJS     .75             .75             .75             .75         
          KF    0               0               0               0            
          AF    1               1               1               1            
          CN    2.42            2.42            2.42            2.2          
           D     .87             .87             .87             .52         


**** 05/09/23 16:53:53 ****** PSpice 17.2.0 (March 2016) ****** ID# 0 ********

 ** Profile: "SCHEMATIC1-transient"  [ C:\Users\razvan.cacu\Desktop\CAD\proiect\PROIECT CAD-PSpiceFiles\SCHEMATIC1\transient.sim ] 


 ****     Resistor MODEL PARAMETERS


******************************************************************************




               R_R27           R_R9            R_R7            R_R3            
           R    1               1               1               1            


               R_R16           R_R18           R_R11           R_R25           
           R    1               1               1               1            


               R_R6            R_R1            R_R17           R_R10           
           R    1               1               1               1            


               R_R15           R_R5            R_R4            R_R8            
           R    1               1               1               1            


               R_R26           
           R    1            


**** 05/09/23 16:53:53 ****** PSpice 17.2.0 (March 2016) ****** ID# 0 ********

 ** Profile: "SCHEMATIC1-transient"  [ C:\Users\razvan.cacu\Desktop\CAD\proiect\PROIECT CAD-PSpiceFiles\SCHEMATIC1\transient.sim ] 


 ****     Capacitor MODEL PARAMETERS


******************************************************************************




               C_C2            C_C1            
           C    1               1            


**** 05/09/23 16:53:53 ****** PSpice 17.2.0 (March 2016) ****** ID# 0 ********

 ** Profile: "SCHEMATIC1-transient"  [ C:\Users\razvan.cacu\Desktop\CAD\proiect\PROIECT CAD-PSpiceFiles\SCHEMATIC1\transient.sim ] 


 ****     INITIAL TRANSIENT SOLUTION       TEMPERATURE =   27.000 DEG C


******************************************************************************



 NODE   VOLTAGE     NODE   VOLTAGE     NODE   VOLTAGE     NODE   VOLTAGE


(   V+)   15.0000  (   V-)  -15.0000  (DREPT)-84.70E-06  (OUT_B)   13.2860      

(N63598) 3.496E-06 (N63692)    2.7230 (N63816)    3.8094 (N63936)    3.9335     

(N63968)    3.1325 (N64106)-503.2E-06 (N64136)-202.2E-06 (N64254)    3.0647     

(N64324)     .7333 (N64380)    5.9369 (N64702)    1.4720 (N64864)   13.1830     

(N64954)    1.5531 (N65044)     .7863 (N65094)    -.7390 (N65188) 116.4E-06     

(N65198) 117.3E-06 (N65408)   -7.8395 (N645800) 45.00E-09                       

(OUT_INT)   -7.8401                   (X_U6A.1)   -8.0831                       

(X_U6A.8)   -8.0831                   (X_U7B.1)   13.6640                       

(X_U7B.8)   13.6640                   (X_U8B.1)   -1.9411                       

(X_U8B.8)   -1.9411                   (X_U9B.1)   13.2420                       

(X_U9B.8)   13.2420                   (TRIUNGHI)    2.3199                      

(X_U10B.1)   -7.8822                  (X_U10B.8)   -7.8822                      

(X_U11B.1)    2.5823                  (X_U11B.8)    2.5823                      

(X_U6A.10)    -.7485                  (X_U6A.11)    -.7489                      

(X_U6A.12)   -2.6081                  (X_U6A.13)   -4.5915                      

(X_U6A.14)  -11.0890                  (X_U6A.18)   -7.9871                      

(X_U6A.28) 332.6E-06                  (X_U6A.38) 332.6E-06                      

(X_U6A.48) 332.6E-06                  (X_U6A.58) 332.6E-06                      

(X_U6A.59)    0.0000                  (X_U6A.60)  -15.0000                      

(X_U6A.68) 332.6E-06                  (X_U6A.70)   15.0000                      

(X_U6A.78) 332.6E-06                  (X_U6A.80)   13.1150                      

(X_U6A.90)   13.1150                  (X_U6A.99)   -8.0831                      

(X_U7B.10)    -.7164                  (X_U7B.11)    1.9605                      

(X_U7B.12)   -1.2502                  (X_U7B.13)   16.5350                      

(X_U7B.14)   10.0380                  (X_U7B.18)   13.5150                      

(X_U7B.28)   -2.7136                  (X_U7B.38)   -2.7136                      

(X_U7B.48)   -2.7136                  (X_U7B.58)   -2.7136                      

(X_U7B.59)    0.0000                  (X_U7B.60)  -15.0000                      

(X_U7B.68)   -2.7136                  (X_U7B.70)   15.0040                      

(X_U7B.78)   -2.7136                  (X_U7B.80)   14.4590                      

(X_U7B.90)   11.7450                  (X_U7B.99)   13.6640                      

(X_U8B.10)    5.1699                  (X_U8B.11)    1.3760                      

(X_U8B.12)    1.3760                  (X_U8B.13)    3.2485                      

(X_U8B.14)   -3.2487                  (X_U8B.18)   -1.1744                      

(X_U8B.28)    3.8459                  (X_U8B.38)    3.8459                      

(X_U8B.48)    3.8459                  (X_U8B.58)    3.8459                      

(X_U8B.59)    0.0000                  (X_U8B.60)  -15.0000                      

(X_U8B.68)    3.8459                  (X_U8B.70)   15.0000                      

(X_U8B.78)    3.8459                  (X_U8B.80)   11.1540                      

(X_U8B.90)   15.0000                  (X_U8B.99)   -1.9411                      

(X_U9B.10)   12.4340                  (X_U9B.11)   12.5360                      

(X_U9B.12)   10.5020                  (X_U9B.13)   16.4320                      

(X_U9B.14)    9.9348                  (X_U9B.18)   13.2190                      

(X_U9B.28)    -.1032                  (X_U9B.38)    -.1032                      

(X_U9B.48)    -.1032                  (X_U9B.58)    -.1032                      

(X_U9B.59)    0.0000                  (X_U9B.60)  -15.0000                      

(X_U9B.68)    -.1032                  (X_U9B.70)   15.0000                      

(X_U9B.78)    -.1032                  (X_U9B.80)   13.0410                      

(X_U9B.90)   12.9380                  (X_U9B.99)   13.2420                      

(OUT_DREPT)     .0398                 (X_U10B.10)   -8.5870                     

(X_U10B.11)   -8.5874                 (X_U10B.12)  -10.3730                     

(X_U10B.13)   -4.5909                 (X_U10B.14)  -11.0880                     

(X_U10B.18)   -7.8653                 (X_U10B.28) 435.0E-06                     

(X_U10B.38) 435.0E-06                 (X_U10B.48) 435.0E-06                     

(X_U10B.58) 435.0E-06                 (X_U10B.59)    0.0000                     

(X_U10B.60)  -15.0000                 (X_U10B.68) 435.0E-06                     

(X_U10B.70)   15.0000                 (X_U10B.78) 435.0E-06                     

(X_U10B.80)   13.1890                 (X_U10B.90)   13.1890                     

(X_U10B.99)   -7.8822                 (X_U11B.10)    -.7484                     

(X_U11B.11)    -.7484                 (X_U11B.12)   -2.6078                     

(X_U11B.13)    5.5685                 (X_U11B.14)    -.9287                     

(X_U11B.18)    2.4786                 (X_U11B.28)-57.66E-06                     

(X_U11B.38)-57.66E-06                 (X_U11B.48)-57.66E-06                     

(X_U11B.58)-57.66E-06                 (X_U11B.59)    0.0000                     

(X_U11B.60)  -15.0000                 (X_U11B.68)-57.66E-06                     

(X_U11B.70)   15.0000                 (X_U11B.78)-57.66E-06                     

(X_U11B.80)   13.1150                 (X_U11B.90)   13.1150                     

(X_U11B.99)    2.5823                 (X_U6A.131)   15.0000                     

(X_U6A.141)  -15.0000                 (X_U7B.131)   15.7560                     

(X_U7B.141)  -15.0000                 (X_U8B.131)   15.0000                     

(X_U8B.141)  -15.0000                 (X_U9B.131)   15.6680                     

(X_U9B.141)  -15.0000                 (X_U10B.131)   15.0000                    

(X_U10B.141)  -15.0000                (X_U11B.131)   15.0000                    

(X_U11B.141)  -15.0000                (OUT_TRIUNGHI)    2.3016              




    VOLTAGE SOURCE CURRENTS
    NAME         CURRENT

    V_V1        -5.628E+00
    V_V2         5.619E+00
    X_U6A.VC     1.959E-11
    X_U6A.VE     3.911E-12
    X_U10B.VC    5.364E-11
    X_U10B.VE    3.912E-12
    X_U9B.VC    -6.837E-04
    X_U9B.VE     2.493E-11
    X_U7B.VC    -1.183E-03
    X_U7B.VE     2.504E-11
    X_U8B.VC     1.185E-11
    X_U8B.VE     1.175E-11
    X_U11B.VC    9.432E-12
    X_U11B.VE    1.407E-11

    TOTAL POWER DISSIPATION   1.69E+02  WATTS



          JOB CONCLUDED

**** 05/09/23 16:53:53 ****** PSpice 17.2.0 (March 2016) ****** ID# 0 ********

 ** Profile: "SCHEMATIC1-transient"  [ C:\Users\razvan.cacu\Desktop\CAD\proiect\PROIECT CAD-PSpiceFiles\SCHEMATIC1\transient.sim ] 


 ****     JOB STATISTICS SUMMARY


******************************************************************************



  Total job time (using Solver 1)   =        1.73
