
**** 05/19/23 14:49:18 ****** PSpice 17.2.0 (March 2016) ****** ID# 0 ********

 ** Profile: "SCHEMATIC1-worst case "  [ c:\users\razvan.cacu\desktop\proiect cad\cad-pspicefiles\schematic1\worst case .sim ] 


 ****     CIRCUIT DESCRIPTION


******************************************************************************




** Creating circuit file "worst case .cir" 
** WARNING: THIS AUTOMATICALLY GENERATED FILE MAY BE OVERWRITTEN BY SUBSEQUENT SIMULATIONS

*Libraries: 
* Profile Libraries :
* Local Libraries :
* From [PSPICE NETLIST] section of C:\SPB_Data\cdssetup\OrCAD_PSpice\17.2.0\PSpice.ini file:
.lib "nom.lib" 

*Analysis directives: 
.TRAN  0 2ms 0 
.WCASE TRAN V([OUT_TRI]) YMAX VARY BOTH  HI 
.OPTIONS ADVCONV
.PROBE64 V(alias(*)) I(alias(*)) W(alias(*)) D(alias(*)) NOISE(alias(*)) 
.INC "..\SCHEMATIC1.net" 



**** INCLUDING SCHEMATIC1.net ****
* source CAD
R_R34         V- N102589 R_R34 1k TC=0,0 
.model        R_R34 RES R=1 DEV=5% TC1=0 TC2=0
R_R31         V- N103373 R_R31 1k TC=0,0 
.model        R_R31 RES R=1 DEV=5% TC1=0 TC2=0
R_R32         N102343 V+ R_R32 1k TC=0,0 
.model        R_R32 RES R=1 DEV=5% TC1=0 TC2=0
X_U9B         OUT_B N102841 V+ V- N102841 LT1359/LT
R_R5         N102841 N102447 R_R5 8.2k TC=0,0 
.model        R_R5 RES R=1 DEV=2% TC1=0 TC2=0
R_R6         N102447 DREPT R_R6 5.1k TC=0,0 
.model        R_R6 RES R=1 DEV=5% TC1=0 TC2=0
V_V1         V+ 0 15V
R_R17         0 N1026190 R_R17 10k TC=0,0 
.model        R_R17 RES R=1 DEV=5% TC1=0 TC2=0
R_R8         N102971 N102981 R_R8 3.1k TC=0,0 
.model        R_R8 RES R=1 DEV=5% TC1=0 TC2=0
D_D8         DREPT N102589 D1N3604 
R_R29         N102995 V+ R_R29 1k TC=0,0 
.model        R_R29 RES R=1 DEV=5% TC1=0 TC2=0
R_R30         0 OUT_TRI R_R30 25 TC=0,0 
.model        R_R30 RES R=1 DEV=1% TC1=0 TC2=0
X_U8B         N1026190 N102447 V+ V- DREPT LT1359/LT
R_R1         N101971 N101793 R_R1 2.6k TC=0,0 
.model        R_R1 RES R=1 DEV=1% TC1=0 TC2=0
X_U11B         0 N102971 V+ V- N103139 LT1359/LT
X_U7B         N101839 N102217 V+ V- OUT_B LT1359/LT
V_V2         V- 0 -15V
C_C2         0 DREPT C_C2 10n  TC=0,0 
.model        C_C2 CAP C=1 DEV=10% TC1=0 TC2=0 VC1=0 VC2=0
X_U6A         N102163 N101793 V+ V- OUT_INT LT1359/LT
C_C1         N101793 OUT_INT C_C1 10n  TC=0,0 
.model        C_C1 CAP C=1 DEV=5% TC1=0 TC2=0 VC1=0 VC2=0
R_R15         0 N102217 R_R15 5.1k TC=0,0 
.model        R_R15 RES R=1 DEV=5% TC1=0 TC2=0
D_D7         N102343 DREPT D1N3604 
R_R28         0 N102091 R_R28 18k TC=0,0 
.model        R_R28 RES R=1 DEV=5% TC1=0 TC2=0
R_R3         OUT_INT N101839 R_R3 10k TC=0,0 
.model        R_R3 RES R=1 DEV=5% TC1=0 TC2=0
X_P2         N102981 N102981 N103139 POT PARAMS: SET={a} VALUE=1.5k
R_R7         N103225 N102971 R_R7 10k TC=0,0 
.model        R_R7 RES R=1 DEV=5% TC1=0 TC2=0
R_R16         0 N102163 R_R16 5.1k TC=0,0 
.model        R_R16 RES R=1 DEV=5% TC1=0 TC2=0
R_R4         N101839 OUT_B R_R4 10k TC=0,0 
.model        R_R4 RES R=1 DEV=5% TC1=0 TC2=0
R_R33         0 OUT_DREPT R_R33 25 TC=0,0 
.model        R_R33 RES R=1 DEV=1% TC1=0 TC2=0
X_U10B         OUT_INT N103225 V+ V- N103225 LT1359/LT
X_P1         N102091 N101971 OUT_B POT PARAMS: SET={set} VALUE=10k
Q_Q14         V+ N102995 OUT_TRI Q2N2222A/ZTX 
Q_Q15         V- N103373 OUT_TRI TIP32
Q_Q16         V- N102589 OUT_DREPT TIP32
Q_Q17         V+ N102343 OUT_DREPT Q2N2222A/ZTX 
D_D11         N102995 N103139 D1N4148 
D_D12         N103139 N103373 D1N4148 
.IC         V(N101793 )=0
.PARAM  a=1 set=0

**** RESUMING "worst case .cir" ****
.END

**** 05/19/23 14:49:18 ****** PSpice 17.2.0 (March 2016) ****** ID# 0 ********

 ** Profile: "SCHEMATIC1-worst case "  [ c:\users\razvan.cacu\desktop\proiect cad\cad-pspicefiles\schematic1\worst case .sim ] 


 ****     Diode MODEL PARAMETERS


******************************************************************************




               D1N3604         D1N4148         X_U9B.DM1       X_U9B.DM2       
          IS  980.800000E-21    2.682000E-09   10.000000E-21  800.000000E-18 
           N                    1.836                                        
         ISR   12.270000E-09    1.565000E-09                                 
         IKF                     .04417                                      
          BV   75             100                              43.2          
         IBV    5.000000E-06  100.000000E-06                                 
          RS     .1              .5664                                       
          TT    5.771000E-09   11.540000E-09                                 
         CJO    2.000000E-12    4.000000E-12                                 
          VJ     .75             .5                                          
           M     .3333           .3333                                       


               X_U9B.DM3       X_U8B.DM1       X_U8B.DM2       X_U8B.DM3       
          IS  100.000000E-18   10.000000E-21  800.000000E-18  100.000000E-18 
          BV                                   43.2                          


               X_U11B.DM1      X_U11B.DM2      X_U11B.DM3      X_U7B.DM1       
          IS   10.000000E-21  800.000000E-18  100.000000E-18   10.000000E-21 
          BV                   43.2                                          


               X_U7B.DM2       X_U7B.DM3       X_U6A.DM1       X_U6A.DM2       
          IS  800.000000E-18  100.000000E-18   10.000000E-21  800.000000E-18 
          BV   43.2                                            43.2          


               X_U6A.DM3       X_U10B.DM1      X_U10B.DM2      X_U10B.DM3      
          IS  100.000000E-18   10.000000E-21  800.000000E-18  100.000000E-18 
          BV                                   43.2                          


**** 05/19/23 14:49:18 ****** PSpice 17.2.0 (March 2016) ****** ID# 0 ********

 ** Profile: "SCHEMATIC1-worst case "  [ c:\users\razvan.cacu\desktop\proiect cad\cad-pspicefiles\schematic1\worst case .sim ] 


 ****     BJT MODEL PARAMETERS


******************************************************************************




               Q2N2222A/ZTX    TIP32           X_U9B.QM1       X_U9B.QM2       
               NPN             PNP             NPN             NPN             
       LEVEL    1               1               1               1            
          IS   30.611000E-15   51.230000E-15  800.000000E-18  804.630000E-18 
          BF  220             434.1            21.429000E+03   30.000000E+03 
          NF    1.00124         1               1               1            
         VAF  104             100                                            
         IKF     .52             .3883                                       
         ISE    7.500000E-15   51.230000E-15                                 
          NE    1.41            1.22                                         
          BR    4              55.47            1               1            
          NR    1.005           1               1               1            
         VAR   28                                                            
         IKR     .24           10.87                                         
         ISC   10.652500E-12   51.230000E-15                                 
          NC    1.3728          1.205                                        
          NK                     .5544                                       
         ISS    0               0               0               0            
          RB     .13             .1                                          
          RE     .22            0               0               0            
          RC     .12             .3443          0               0            
         CJE   27.010000E-12  179.900000E-12    0               0            
         VJE     .75             .75             .75             .75         
         MJE                     .4294                                       
         CJC    9.120000E-12  136.900000E-12    0               0            
         VJC     .4089           .75             .75             .75         
         MJC     .3508           .3155           .33             .33         
        XCJC    1               1               1               1            
         CJS    0               0               0               0            
         VJS     .75             .75             .75             .75         
          TF  325.000000E-12   13.050000E-09                                 
         XTF                    1.573                                        
         VTF                   10                                            
         ITF                    6.85                                         
          TR  100.000000E-09   20.250000E-09                                 
         XTB                    2.2                                          
          KF    0               0               0               0            
          AF    1               1               1               1            
          CN    2.42            2.2             2.42            2.42         
           D     .87             .52             .87             .87         


               X_U9B.QM3       X_U9B.QM4       X_U8B.QM1       X_U8B.QM2       
               NPN             PNP             NPN             NPN             
       LEVEL    1               1               1               1            
          IS  800.000000E-18  800.000000E-18  800.000000E-18  804.630000E-18 
          BF  100             100              21.429000E+03   30.000000E+03 
          NF    1               1               1               1            
          BR    1               1               1               1            
          NR    1               1               1               1            
         ISS    0               0               0               0            
          RE    0               0               0               0            
          RC    0               0               0               0            
         CJE    0               0               0               0            
         VJE     .75             .75             .75             .75         
         CJC    0               0               0               0            
         VJC     .75             .75             .75             .75         
         MJC     .33             .33             .33             .33         
        XCJC    1               1               1               1            
         CJS    0               0               0               0            
         VJS     .75             .75             .75             .75         
          KF    0               0               0               0            
          AF    1               1               1               1            
          CN    2.42            2.2             2.42            2.42         
           D     .87             .52             .87             .87         


               X_U8B.QM3       X_U8B.QM4       X_U11B.QM1      X_U11B.QM2      
               NPN             PNP             NPN             NPN             
       LEVEL    1               1               1               1            
          IS  800.000000E-18  800.000000E-18  800.000000E-18  804.630000E-18 
          BF  100             100              21.429000E+03   30.000000E+03 
          NF    1               1               1               1            
          BR    1               1               1               1            
          NR    1               1               1               1            
         ISS    0               0               0               0            
          RE    0               0               0               0            
          RC    0               0               0               0            
         CJE    0               0               0               0            
         VJE     .75             .75             .75             .75         
         CJC    0               0               0               0            
         VJC     .75             .75             .75             .75         
         MJC     .33             .33             .33             .33         
        XCJC    1               1               1               1            
         CJS    0               0               0               0            
         VJS     .75             .75             .75             .75         
          KF    0               0               0               0            
          AF    1               1               1               1            
          CN    2.42            2.2             2.42            2.42         
           D     .87             .52             .87             .87         


               X_U11B.QM3      X_U11B.QM4      X_U7B.QM1       X_U7B.QM2       
               NPN             PNP             NPN             NPN             
       LEVEL    1               1               1               1            
          IS  800.000000E-18  800.000000E-18  800.000000E-18  804.630000E-18 
          BF  100             100              21.429000E+03   30.000000E+03 
          NF    1               1               1               1            
          BR    1               1               1               1            
          NR    1               1               1               1            
         ISS    0               0               0               0            
          RE    0               0               0               0            
          RC    0               0               0               0            
         CJE    0               0               0               0            
         VJE     .75             .75             .75             .75         
         CJC    0               0               0               0            
         VJC     .75             .75             .75             .75         
         MJC     .33             .33             .33             .33         
        XCJC    1               1               1               1            
         CJS    0               0               0               0            
         VJS     .75             .75             .75             .75         
          KF    0               0               0               0            
          AF    1               1               1               1            
          CN    2.42            2.2             2.42            2.42         
           D     .87             .52             .87             .87         


               X_U7B.QM3       X_U7B.QM4       X_U6A.QM1       X_U6A.QM2       
               NPN             PNP             NPN             NPN             
       LEVEL    1               1               1               1            
          IS  800.000000E-18  800.000000E-18  800.000000E-18  804.630000E-18 
          BF  100             100              21.429000E+03   30.000000E+03 
          NF    1               1               1               1            
          BR    1               1               1               1            
          NR    1               1               1               1            
         ISS    0               0               0               0            
          RE    0               0               0               0            
          RC    0               0               0               0            
         CJE    0               0               0               0            
         VJE     .75             .75             .75             .75         
         CJC    0               0               0               0            
         VJC     .75             .75             .75             .75         
         MJC     .33             .33             .33             .33         
        XCJC    1               1               1               1            
         CJS    0               0               0               0            
         VJS     .75             .75             .75             .75         
          KF    0               0               0               0            
          AF    1               1               1               1            
          CN    2.42            2.2             2.42            2.42         
           D     .87             .52             .87             .87         


               X_U6A.QM3       X_U6A.QM4       X_U10B.QM1      X_U10B.QM2      
               NPN             PNP             NPN             NPN             
       LEVEL    1               1               1               1            
          IS  800.000000E-18  800.000000E-18  800.000000E-18  804.630000E-18 
          BF  100             100              21.429000E+03   30.000000E+03 
          NF    1               1               1               1            
          BR    1               1               1               1            
          NR    1               1               1               1            
         ISS    0               0               0               0            
          RE    0               0               0               0            
          RC    0               0               0               0            
         CJE    0               0               0               0            
         VJE     .75             .75             .75             .75         
         CJC    0               0               0               0            
         VJC     .75             .75             .75             .75         
         MJC     .33             .33             .33             .33         
        XCJC    1               1               1               1            
         CJS    0               0               0               0            
         VJS     .75             .75             .75             .75         
          KF    0               0               0               0            
          AF    1               1               1               1            
          CN    2.42            2.2             2.42            2.42         
           D     .87             .52             .87             .87         


               X_U10B.QM3      X_U10B.QM4      
               NPN             PNP             
       LEVEL    1               1            
          IS  800.000000E-18  800.000000E-18 
          BF  100             100            
          NF    1               1            
          BR    1               1            
          NR    1               1            
         ISS    0               0            
          RE    0               0            
          RC    0               0            
         CJE    0               0            
         VJE     .75             .75         
         CJC    0               0            
         VJC     .75             .75         
         MJC     .33             .33         
        XCJC    1               1            
         CJS    0               0            
         VJS     .75             .75         
          KF    0               0            
          AF    1               1            
          CN    2.42            2.2          
           D     .87             .52         


**** 05/19/23 14:49:18 ****** PSpice 17.2.0 (March 2016) ****** ID# 0 ********

 ** Profile: "SCHEMATIC1-worst case "  [ c:\users\razvan.cacu\desktop\proiect cad\cad-pspicefiles\schematic1\worst case .sim ] 


 ****     Resistor MODEL PARAMETERS


******************************************************************************




               R_R34           R_R31           R_R32           R_R5            
           R    1               1               1               1            


               R_R6            R_R17           R_R8            R_R29           
           R    1               1               1               1            


               R_R30           R_R1            R_R15           R_R28           
           R    1               1               1               1            


               R_R3            R_R7            R_R16           R_R4            
           R    1               1               1               1            


               R_R33           
           R    1            


**** 05/19/23 14:49:18 ****** PSpice 17.2.0 (March 2016) ****** ID# 0 ********

 ** Profile: "SCHEMATIC1-worst case "  [ c:\users\razvan.cacu\desktop\proiect cad\cad-pspicefiles\schematic1\worst case .sim ] 


 ****     Capacitor MODEL PARAMETERS


******************************************************************************




               C_C2            C_C1            
           C    1               1            


**** 05/19/23 14:49:18 ****** PSpice 17.2.0 (March 2016) ****** ID# 0 ********

 ** Profile: "SCHEMATIC1-worst case "  [ c:\users\razvan.cacu\desktop\proiect cad\cad-pspicefiles\schematic1\worst case .sim ] 


 ****     INITIAL TRANSIENT SOLUTION       TEMPERATURE =   27.000 DEG C

                      SENSITIVITY NOMINAL

******************************************************************************



 NODE   VOLTAGE     NODE   VOLTAGE     NODE   VOLTAGE     NODE   VOLTAGE


(   V+)   15.0000  (   V-)  -15.0000  (DREPT)   -5.0507  (OUT_B)    8.1206      

(N101793) 6.246E-06                   (N101839)-611.1E-06                       

(N101971)    8.1206                   (N102091)    5.2204                       

(N102163)-503.2E-06                   (N102217)-704.6E-06                       

(N102343)   -4.2683                   (N102447)-568.1E-06                       

(N102589)   -5.7764                   (N102841)    8.1204                       

(N102971) 59.03E-06                   (N102981)    2.5178                       

(N102995)    4.4566                   (N103139)    3.7360                       

(N103225)   -8.1202                   (N103373)    2.9783                       

(OUT_INT)   -8.1208                   (OUT_TRI)    3.6579                       

(X_U6A.1)   -8.1582                   (X_U6A.8)   -8.1582                       

(X_U7B.1)    8.3150                   (X_U7B.8)    8.3150                       

(X_U8B.1)   -5.6769                   (X_U8B.8)   -5.6769                       

(X_U9B.1)    8.1660                   (X_U9B.8)    8.1660                       

(N1026190)-986.8E-06                  (X_U10B.1)   -8.1576                      

(X_U10B.8)   -8.1576                  (X_U11B.1)    4.1494                      

(X_U11B.8)    4.1494                  (X_U6A.10)    -.7485                      

(X_U6A.11)    -.7489                  (X_U6A.12)   -2.6081                      

(X_U6A.13)   -1.9090                  (X_U6A.14)  -11.3690                      

(X_U6A.18)   -8.1434                  (X_U6A.28) 335.4E-06                      

(X_U6A.38) 335.4E-06                  (X_U6A.48) 335.4E-06                      

(X_U6A.58) 335.4E-06                  (X_U6A.59)    0.0000                      

(X_U6A.60)  -15.0000                  (X_U6A.68) 335.4E-06                      

(X_U6A.70)   15.0000                  (X_U6A.78) 335.4E-06                      

(X_U6A.80)   13.1150                  (X_U6A.90)   13.1150                      

(X_U6A.99)   -8.1582                  (X_U7B.10)    -.7492                      

(X_U7B.11)    -.7490                  (X_U7B.12)   -2.6085                      

(X_U7B.13)   11.4410                  (X_U7B.14)    4.8720                      

(X_U7B.18)    8.2382                  (X_U7B.28)-267.4E-06                      

(X_U7B.38)-267.4E-06                  (X_U7B.48)-267.4E-06                      

(X_U7B.58)-267.4E-06                  (X_U7B.59)    0.0000                      

(X_U7B.60)  -15.0000                  (X_U7B.68)-267.4E-06                      

(X_U7B.70)   15.0000                  (X_U7B.78)-267.4E-06                      

(X_U7B.80)   13.1150                  (X_U7B.90)   13.1150                      

(X_U7B.99)    8.3150                  (X_U8B.10)    -.7491                      

(X_U8B.11)    -.7493                  (X_U8B.12)   -2.6086                      

(X_U8B.13)   -1.8021                  (X_U8B.14)   -8.2993                      

(X_U8B.18)   -5.4296                  (X_U8B.28) 244.6E-06                      

(X_U8B.38) 244.6E-06                  (X_U8B.48) 244.6E-06                      

(X_U8B.58) 244.6E-06                  (X_U8B.59)    0.0000                      

(X_U8B.60)  -15.0000                  (X_U8B.68) 244.6E-06                      

(X_U8B.70)   15.0000                  (X_U8B.78) 244.6E-06                      

(X_U8B.80)   13.1150                  (X_U8B.90)   13.1150                      

(X_U8B.99)   -5.6769                  (X_U9B.10)    7.3709                      

(X_U9B.11)    7.3712                  (X_U9B.12)    5.4358                      

(X_U9B.13)   11.0620                  (X_U9B.14)    4.8718                      

(X_U9B.18)    8.1480                  (X_U9B.28)-375.6E-06                      

(X_U9B.38)-375.6E-06                  (X_U9B.48)-375.6E-06                      

(X_U9B.58)-375.6E-06                  (X_U9B.59)    0.0000                      

(X_U9B.60)  -15.0000                  (X_U9B.68)-375.6E-06                      

(X_U9B.70)   15.0000                  (X_U9B.78)-375.6E-06                      

(X_U9B.80)   13.0380                  (X_U9B.90)   13.0380                      

(X_U9B.99)    8.1660                  (OUT_DREPT)   -5.0084                     

(X_U10B.10)   -8.8677                 (X_U10B.11)   -8.8681                     

(X_U10B.12)  -10.6520                 (X_U10B.13) -114.9800                     

(X_U10B.14)  -11.3690                 (X_U10B.18)   -8.1428                     

(X_U10B.28) 449.0E-06                 (X_U10B.38) 449.0E-06                     

(X_U10B.48) 449.0E-06                 (X_U10B.58) 449.0E-06                     

(X_U10B.59)    0.0000                 (X_U10B.60)  -15.0000                     

(X_U10B.68) 449.0E-06                 (X_U10B.70)   15.0000                     

(X_U10B.78) 449.0E-06                 (X_U10B.80)   13.1920                     

(X_U10B.90)   13.1920                 (X_U10B.99)   -8.1576                     

(X_U11B.10)    -.7484                 (X_U11B.11)    -.7484                     

(X_U11B.12)   -2.6078                 (X_U11B.13)    6.9846                     

(X_U11B.14)     .4874                 (X_U11B.18)    3.9861                     

(X_U11B.28)-115.0E-06                 (X_U11B.38)-115.0E-06                     

(X_U11B.48)-115.0E-06                 (X_U11B.58)-115.0E-06                     

(X_U11B.59)    0.0000                 (X_U11B.60)  -15.0000                     

(X_U11B.68)-115.0E-06                 (X_U11B.70)   15.0000                     

(X_U11B.78)-115.0E-06                 (X_U11B.80)   13.1150                     

(X_U11B.90)   13.1150                 (X_U11B.99)    4.1494                     

(X_U6A.131)   15.0000                 (X_U6A.141)  -15.0000                     

(X_U7B.131)   15.0000                 (X_U7B.141)  -15.0000                     

(X_U8B.131)   15.0000                 (X_U8B.141)  -15.0000                     

(X_U9B.131)   15.0000                 (X_U9B.141)  -15.0000                     

(X_U10B.131)   15.0000                (X_U10B.141)  -15.0000                    

(X_U11B.131)   15.0000                (X_U11B.141)  -15.0000                




    VOLTAGE SOURCE CURRENTS
    NAME         CURRENT

    V_V1        -2.552E-01
    V_V2         3.053E-01
    X_U9B.VC     3.938E-12
    X_U9B.VE     1.987E-11
    X_U8B.VC     1.680E-11
    X_U8B.VE     6.701E-12
    X_U11B.VC    8.180E-12
    X_U11B.VE    1.549E-11
    X_U7B.VC     3.559E-12
    X_U7B.VE     1.987E-11
    X_U6A.VC     1.691E-11
    X_U6A.VE     3.631E-12
    X_U10B.VC    1.300E-10
    X_U10B.VE    3.631E-12

    TOTAL POWER DISSIPATION   8.41E+00  WATTS

 NODE   VOLTAGE     NODE   VOLTAGE     NODE   VOLTAGE     NODE   VOLTAGE


(   V+)   15.0000  (   V-)  -15.0000  (DREPT)   -8.1990  (OUT_B)   13.2840      

(N101793) 10.22E-06                   (N101839)    2.5323                       

(N101971)   13.2830                   (N102091)    8.5394                       

(N102163)-503.2E-06                   (N102217)-237.1E-06                       

(N102343)   -7.4090                   (N102447)-436.2E-06                       

(N102589)   -8.8545                   (N102841)   13.1830                       

(N102971) 57.22E-06                   (N102981)    2.5477                       

(N102995)    4.5007                   (N103139)    3.7804                       

(N103225)   -8.2166                   (N103373)    3.0225                       

(OUT_INT)   -8.2173                   (OUT_TRI)    3.7013                       

(X_U6A.1)   -8.2667                   (X_U6A.8)   -8.2667                       

(X_U7B.1)   13.6430                   (X_U7B.8)   13.6430                       

(X_U8B.1)   -9.2089                   (X_U8B.8)   -9.2089                       

(X_U9B.1)   13.2880                   (X_U9B.8)   13.2880                       

(N1026190)-986.7E-06                  (X_U10B.1)   -8.2544                      

(X_U10B.8)   -8.2544                  (X_U11B.1)    4.1988                      

(X_U11B.8)    4.1988                  (X_U6A.10)    -.7485                      

(X_U6A.11)    -.7489                  (X_U6A.12)   -2.6081                      

(X_U6A.13)   -4.9687                  (X_U6A.14)  -11.4660                      

(X_U6A.18)   -8.2472                  (X_U6A.28) 339.3E-06                      

(X_U6A.38) 339.3E-06                  (X_U6A.48) 339.3E-06                      

(X_U6A.58) 339.3E-06                  (X_U6A.59)    0.0000                      

(X_U6A.60)  -15.0000                  (X_U6A.68) 339.3E-06                      

(X_U6A.70)   15.0000                  (X_U6A.78) 339.3E-06                      

(X_U6A.80)   13.1150                  (X_U6A.90)   13.1150                      

(X_U6A.99)   -8.2667                  (X_U7B.10)    -.7206                      

(X_U7B.11)    1.7706                  (X_U7B.12)   -1.3463                      

(X_U7B.13)   16.5320                  (X_U7B.14)   10.0350                      

(X_U7B.18)   13.5010                  (X_U7B.28)   -2.5253                      

(X_U7B.38)   -2.5253                  (X_U7B.48)   -2.5253                      

(X_U7B.58)   -2.5253                  (X_U7B.59)    0.0000                      

(X_U7B.60)  -15.0000                  (X_U7B.68)   -2.5253                      

(X_U7B.70)   15.0040                  (X_U7B.78)   -2.5253                      

(X_U7B.80)   14.3660                  (X_U7B.90)   11.8400                      

(X_U7B.99)   13.6430                  (X_U8B.10)    -.7489                      

(X_U8B.11)    -.7493                  (X_U8B.12)   -2.6086                      

(X_U8B.13)   -4.9504                  (X_U8B.14)  -11.4480                      

(X_U8B.18)   -8.8100                  (X_U8B.28) 376.4E-06                      

(X_U8B.38) 376.4E-06                  (X_U8B.48) 376.4E-06                      

(X_U8B.58) 376.4E-06                  (X_U8B.59)    0.0000                      

(X_U8B.60)  -15.0000                  (X_U8B.68) 376.4E-06                      

(X_U8B.70)   15.0000                  (X_U8B.78) 376.4E-06                      

(X_U8B.80)   13.1150                  (X_U8B.90)   13.1150                      

(X_U8B.99)   -9.2089                  (X_U9B.10)   12.4330                      

(X_U9B.11)   12.5330                  (X_U9B.12)   10.5000                      

(X_U9B.13)   16.4310                  (X_U9B.14)    9.9342                      

(X_U9B.18)   13.2470                  (X_U9B.28)    -.1010                      

(X_U9B.38)    -.1010                  (X_U9B.48)    -.1010                      

(X_U9B.58)    -.1010                  (X_U9B.59)    0.0000                      

(X_U9B.60)  -15.0000                  (X_U9B.68)    -.1010                      

(X_U9B.70)   15.0000                  (X_U9B.78)    -.1010                      

(X_U9B.80)   13.0400                  (X_U9B.90)   12.9390                      

(X_U9B.99)   13.2880                  (OUT_DREPT)   -8.0752                     

(X_U10B.10)   -8.9640                 (X_U10B.11)   -8.9645                     

(X_U10B.12)  -10.7470                 (X_U10B.13)   -4.9680                     

(X_U10B.14)  -11.4650                 (X_U10B.18)   -8.2395                     

(X_U10B.28) 453.9E-06                 (X_U10B.38) 453.9E-06                     

(X_U10B.48) 453.9E-06                 (X_U10B.58) 453.9E-06                     

(X_U10B.59)    0.0000                 (X_U10B.60)  -15.0000                     

(X_U10B.68) 453.9E-06                 (X_U10B.70)   15.0000                     

(X_U10B.78) 453.9E-06                 (X_U10B.80)   13.1930                     

(X_U10B.90)   13.1930                 (X_U10B.99)   -8.2544                     

(X_U11B.10)    -.7484                 (X_U11B.11)    -.7484                     

(X_U11B.12)   -2.6078                 (X_U11B.13)    7.0290                     

(X_U11B.14)     .5318                 (X_U11B.18)    4.0335                     

(X_U11B.28)-116.8E-06                 (X_U11B.38)-116.8E-06                     

(X_U11B.48)-116.8E-06                 (X_U11B.58)-116.8E-06                     

(X_U11B.59)    0.0000                 (X_U11B.60)  -15.0000                     

(X_U11B.68)-116.8E-06                 (X_U11B.70)   15.0000                     

(X_U11B.78)-116.8E-06                 (X_U11B.80)   13.1150                     

(X_U11B.90)   13.1150                 (X_U11B.99)    4.1988                     

(X_U6A.131)   15.0000                 (X_U6A.141)  -15.0000                     

(X_U7B.131)   15.7540                 (X_U7B.141)  -15.0000                     

(X_U8B.131)   15.0000                 (X_U8B.141)  -15.0000                     

(X_U9B.131)   15.6670                 (X_U9B.141)  -15.0000                     

(X_U10B.131)   15.0000                (X_U10B.141)  -15.0000                    

(X_U11B.131)   15.0000                (X_U11B.141)  -15.0000                




    VOLTAGE SOURCE CURRENTS
    NAME         CURRENT

    V_V1        -2.098E-01
    V_V2         3.749E-01
    X_U9B.VC    -6.828E-04
    X_U9B.VE     2.493E-11
    X_U8B.VC     1.995E-11
    X_U8B.VE     3.552E-12
    X_U11B.VC    7.971E-12
    X_U11B.VE    1.553E-11
    X_U7B.VC    -1.151E-03
    X_U7B.VE     2.504E-11
    X_U6A.VC     1.997E-11
    X_U6A.VE     3.534E-12
    X_U10B.VC    1.668E-10
    X_U10B.VE    3.535E-12

    TOTAL POWER DISSIPATION   8.78E+00  WATTS

 NODE   VOLTAGE     NODE   VOLTAGE     NODE   VOLTAGE     NODE   VOLTAGE


(   V+)   15.0000  (   V-)  -15.0000  (DREPT)   -8.1990  (OUT_B)   13.2840      

(N101793) 10.22E-06                   (N101839)    2.5323                       

(N101971)   13.2830                   (N102091)    8.5394                       

(N102163)-503.2E-06                   (N102217)-237.1E-06                       

(N102343)   -7.4090                   (N102447)-436.2E-06                       

(N102589)   -8.8545                   (N102841)   13.1830                       

(N102971) 57.22E-06                   (N102981)    2.5477                       

(N102995)    4.5007                   (N103139)    3.7804                       

(N103225)   -8.2166                   (N103373)    3.0225                       

(OUT_INT)   -8.2173                   (OUT_TRI)    3.7013                       

(X_U6A.1)   -8.2667                   (X_U6A.8)   -8.2667                       

(X_U7B.1)   13.6430                   (X_U7B.8)   13.6430                       

(X_U8B.1)   -9.2089                   (X_U8B.8)   -9.2089                       

(X_U9B.1)   13.2880                   (X_U9B.8)   13.2880                       

(N1026190)-986.7E-06                  (X_U10B.1)   -8.2544                      

(X_U10B.8)   -8.2544                  (X_U11B.1)    4.1988                      

(X_U11B.8)    4.1988                  (X_U6A.10)    -.7485                      

(X_U6A.11)    -.7489                  (X_U6A.12)   -2.6081                      

(X_U6A.13)   -4.9686                  (X_U6A.14)  -11.4660                      

(X_U6A.18)   -8.2472                  (X_U6A.28) 339.3E-06                      

(X_U6A.38) 339.3E-06                  (X_U6A.48) 339.3E-06                      

(X_U6A.58) 339.3E-06                  (X_U6A.59)    0.0000                      

(X_U6A.60)  -15.0000                  (X_U6A.68) 339.3E-06                      

(X_U6A.70)   15.0000                  (X_U6A.78) 339.3E-06                      

(X_U6A.80)   13.1150                  (X_U6A.90)   13.1150                      

(X_U6A.99)   -8.2667                  (X_U7B.10)    -.7206                      

(X_U7B.11)    1.7706                  (X_U7B.12)   -1.3463                      

(X_U7B.13)   16.5320                  (X_U7B.14)   10.0350                      

(X_U7B.18)   13.5010                  (X_U7B.28)   -2.5253                      

(X_U7B.38)   -2.5253                  (X_U7B.48)   -2.5253                      

(X_U7B.58)   -2.5253                  (X_U7B.59)    0.0000                      

(X_U7B.60)  -15.0000                  (X_U7B.68)   -2.5253                      

(X_U7B.70)   15.0040                  (X_U7B.78)   -2.5253                      

(X_U7B.80)   14.3660                  (X_U7B.90)   11.8400                      

(X_U7B.99)   13.6430                  (X_U8B.10)    -.7489                      

(X_U8B.11)    -.7493                  (X_U8B.12)   -2.6086                      

(X_U8B.13)   -4.9505                  (X_U8B.14)  -11.4480                      

(X_U8B.18)   -8.8100                  (X_U8B.28) 376.4E-06                      

(X_U8B.38) 376.4E-06                  (X_U8B.48) 376.4E-06                      

(X_U8B.58) 376.4E-06                  (X_U8B.59)    0.0000                      

(X_U8B.60)  -15.0000                  (X_U8B.68) 376.4E-06                      

(X_U8B.70)   15.0000                  (X_U8B.78) 376.4E-06                      

(X_U8B.80)   13.1150                  (X_U8B.90)   13.1150                      

(X_U8B.99)   -9.2089                  (X_U9B.10)   12.4330                      

(X_U9B.11)   12.5330                  (X_U9B.12)   10.5000                      

(X_U9B.13)   16.4310                  (X_U9B.14)    9.9342                      

(X_U9B.18)   13.2470                  (X_U9B.28)    -.1010                      

(X_U9B.38)    -.1010                  (X_U9B.48)    -.1010                      

(X_U9B.58)    -.1010                  (X_U9B.59)    0.0000                      

(X_U9B.60)  -15.0000                  (X_U9B.68)    -.1010                      

(X_U9B.70)   15.0000                  (X_U9B.78)    -.1010                      

(X_U9B.80)   13.0400                  (X_U9B.90)   12.9390                      

(X_U9B.99)   13.2880                  (OUT_DREPT)   -8.0752                     

(X_U10B.10)   -8.9640                 (X_U10B.11)   -8.9645                     

(X_U10B.12)  -10.7470                 (X_U10B.13)   -4.9680                     

(X_U10B.14)  -11.4650                 (X_U10B.18)   -8.2395                     

(X_U10B.28) 453.9E-06                 (X_U10B.38) 453.9E-06                     

(X_U10B.48) 453.9E-06                 (X_U10B.58) 453.9E-06                     

(X_U10B.59)    0.0000                 (X_U10B.60)  -15.0000                     

(X_U10B.68) 453.9E-06                 (X_U10B.70)   15.0000                     

(X_U10B.78) 453.9E-06                 (X_U10B.80)   13.1930                     

(X_U10B.90)   13.1930                 (X_U10B.99)   -8.2544                     

(X_U11B.10)    -.7484                 (X_U11B.11)    -.7484                     

(X_U11B.12)   -2.6078                 (X_U11B.13)    7.0290                     

(X_U11B.14)     .5318                 (X_U11B.18)    4.0335                     

(X_U11B.28)-116.8E-06                 (X_U11B.38)-116.8E-06                     

(X_U11B.48)-116.8E-06                 (X_U11B.58)-116.8E-06                     

(X_U11B.59)    0.0000                 (X_U11B.60)  -15.0000                     

(X_U11B.68)-116.8E-06                 (X_U11B.70)   15.0000                     

(X_U11B.78)-116.8E-06                 (X_U11B.80)   13.1150                     

(X_U11B.90)   13.1150                 (X_U11B.99)    4.1988                     

(X_U6A.131)   15.0000                 (X_U6A.141)  -15.0000                     

(X_U7B.131)   15.7540                 (X_U7B.141)  -15.0000                     

(X_U8B.131)   15.0000                 (X_U8B.141)  -15.0000                     

(X_U9B.131)   15.6670                 (X_U9B.141)  -15.0000                     

(X_U10B.131)   15.0000                (X_U10B.141)  -15.0000                    

(X_U11B.131)   15.0000                (X_U11B.141)  -15.0000                




    VOLTAGE SOURCE CURRENTS
    NAME         CURRENT

    V_V1        -2.098E-01
    V_V2         3.749E-01
    X_U9B.VC    -6.828E-04
    X_U9B.VE     2.493E-11
    X_U8B.VC     1.995E-11
    X_U8B.VE     3.552E-12
    X_U11B.VC    7.971E-12
    X_U11B.VE    1.553E-11
    X_U7B.VC    -1.151E-03
    X_U7B.VE     2.504E-11
    X_U6A.VC     1.997E-11
    X_U6A.VE     3.534E-12
    X_U10B.VC    4.154E-10
    X_U10B.VE    3.535E-12

    TOTAL POWER DISSIPATION   8.78E+00  WATTS

 NODE   VOLTAGE     NODE   VOLTAGE     NODE   VOLTAGE     NODE   VOLTAGE


(   V+)   15.0000  (   V-)  -15.0000  (DREPT)   -8.1990  (OUT_B)   13.2840      

(N101793) 10.22E-06                   (N101839)    2.5323                       

(N101971)   13.2830                   (N102091)    8.5394                       

(N102163)-503.2E-06                   (N102217)-237.1E-06                       

(N102343)   -7.4090                   (N102447)-436.2E-06                       

(N102589)   -8.8543                   (N102841)   13.1830                       

(N102971) 57.22E-06                   (N102981)    2.5477                       

(N102995)    4.5007                   (N103139)    3.7804                       

(N103225)   -8.2166                   (N103373)    3.0225                       

(OUT_INT)   -8.2173                   (OUT_TRI)    3.7013                       

(X_U6A.1)   -8.2667                   (X_U6A.8)   -8.2667                       

(X_U7B.1)   13.6430                   (X_U7B.8)   13.6430                       

(X_U8B.1)   -9.2091                   (X_U8B.8)   -9.2091                       

(X_U9B.1)   13.2880                   (X_U9B.8)   13.2880                       

(N1026190)-986.7E-06                  (X_U10B.1)   -8.2544                      

(X_U10B.8)   -8.2544                  (X_U11B.1)    4.1988                      

(X_U11B.8)    4.1988                  (X_U6A.10)    -.7485                      

(X_U6A.11)    -.7489                  (X_U6A.12)   -2.6081                      

(X_U6A.13)   -4.9687                  (X_U6A.14)  -11.4660                      

(X_U6A.18)   -8.2472                  (X_U6A.28) 339.3E-06                      

(X_U6A.38) 339.3E-06                  (X_U6A.48) 339.3E-06                      

(X_U6A.58) 339.3E-06                  (X_U6A.59)    0.0000                      

(X_U6A.60)  -15.0000                  (X_U6A.68) 339.3E-06                      

(X_U6A.70)   15.0000                  (X_U6A.78) 339.3E-06                      

(X_U6A.80)   13.1150                  (X_U6A.90)   13.1150                      

(X_U6A.99)   -8.2667                  (X_U7B.10)    -.7206                      

(X_U7B.11)    1.7706                  (X_U7B.12)   -1.3463                      

(X_U7B.13)   16.5320                  (X_U7B.14)   10.0350                      

(X_U7B.18)   13.5010                  (X_U7B.28)   -2.5253                      

(X_U7B.38)   -2.5253                  (X_U7B.48)   -2.5253                      

(X_U7B.58)   -2.5253                  (X_U7B.59)    0.0000                      

(X_U7B.60)  -15.0000                  (X_U7B.68)   -2.5253                      

(X_U7B.70)   15.0040                  (X_U7B.78)   -2.5253                      

(X_U7B.80)   14.3660                  (X_U7B.90)   11.8400                      

(X_U7B.99)   13.6430                  (X_U8B.10)    -.7489                      

(X_U8B.11)    -.7493                  (X_U8B.12)   -2.6086                      

(X_U8B.13)   -4.9504                  (X_U8B.14)  -11.4480                      

(X_U8B.18)   -8.8101                  (X_U8B.28) 376.4E-06                      

(X_U8B.38) 376.4E-06                  (X_U8B.48) 376.4E-06                      

(X_U8B.58) 376.4E-06                  (X_U8B.59)    0.0000                      

(X_U8B.60)  -15.0000                  (X_U8B.68) 376.4E-06                      

(X_U8B.70)   15.0000                  (X_U8B.78) 376.4E-06                      

(X_U8B.80)   13.1150                  (X_U8B.90)   13.1150                      

(X_U8B.99)   -9.2091                  (X_U9B.10)   12.4330                      

(X_U9B.11)   12.5330                  (X_U9B.12)   10.5000                      

(X_U9B.13)   16.4310                  (X_U9B.14)    9.9342                      

(X_U9B.18)   13.2470                  (X_U9B.28)    -.1010                      

(X_U9B.38)    -.1010                  (X_U9B.48)    -.1010                      

(X_U9B.58)    -.1010                  (X_U9B.59)    0.0000                      

(X_U9B.60)  -15.0000                  (X_U9B.68)    -.1010                      

(X_U9B.70)   15.0000                  (X_U9B.78)    -.1010                      

(X_U9B.80)   13.0400                  (X_U9B.90)   12.9390                      

(X_U9B.99)   13.2880                  (OUT_DREPT)   -8.0751                     

(X_U10B.10)   -8.9640                 (X_U10B.11)   -8.9645                     

(X_U10B.12)  -10.7470                 (X_U10B.13)   -3.0000                     

(X_U10B.14)  -11.4650                 (X_U10B.18)   -8.2395                     

(X_U10B.28) 453.9E-06                 (X_U10B.38) 453.9E-06                     

(X_U10B.48) 453.9E-06                 (X_U10B.58) 453.9E-06                     

(X_U10B.59)    0.0000                 (X_U10B.60)  -15.0000                     

(X_U10B.68) 453.9E-06                 (X_U10B.70)   15.0000                     

(X_U10B.78) 453.9E-06                 (X_U10B.80)   13.1930                     

(X_U10B.90)   13.1930                 (X_U10B.99)   -8.2544                     

(X_U11B.10)    -.7484                 (X_U11B.11)    -.7484                     

(X_U11B.12)   -2.6078                 (X_U11B.13)    7.0290                     

(X_U11B.14)     .5318                 (X_U11B.18)    4.0335                     

(X_U11B.28)-116.8E-06                 (X_U11B.38)-116.8E-06                     

(X_U11B.48)-116.8E-06                 (X_U11B.58)-116.8E-06                     

(X_U11B.59)    0.0000                 (X_U11B.60)  -15.0000                     

(X_U11B.68)-116.8E-06                 (X_U11B.70)   15.0000                     

(X_U11B.78)-116.8E-06                 (X_U11B.80)   13.1150                     

(X_U11B.90)   13.1150                 (X_U11B.99)    4.1988                     

(X_U6A.131)   15.0000                 (X_U6A.141)  -15.0000                     

(X_U7B.131)   15.7540                 (X_U7B.141)  -15.0000                     

(X_U8B.131)   15.0000                 (X_U8B.141)  -15.0000                     

(X_U9B.131)   15.6670                 (X_U9B.141)  -15.0000                     

(X_U10B.131)   15.0000                (X_U10B.141)  -15.0000                    

(X_U11B.131)   15.0000                (X_U11B.141)  -15.0000                




    VOLTAGE SOURCE CURRENTS
    NAME         CURRENT

    V_V1        -2.098E-01
    V_V2         3.748E-01
    X_U9B.VC    -6.828E-04
    X_U9B.VE     2.493E-11
    X_U8B.VC     1.995E-11
    X_U8B.VE     3.552E-12
    X_U11B.VC    7.971E-12
    X_U11B.VE    1.553E-11
    X_U7B.VC    -1.151E-03
    X_U7B.VE     2.504E-11
    X_U6A.VC     1.997E-11
    X_U6A.VE     3.534E-12
    X_U10B.VC    3.212E-10
    X_U10B.VE    3.535E-12

    TOTAL POWER DISSIPATION   8.78E+00  WATTS

 NODE   VOLTAGE     NODE   VOLTAGE     NODE   VOLTAGE     NODE   VOLTAGE


(   V+)   15.0000  (   V-)  -15.0000  (DREPT)   -8.1990  (OUT_B)   13.2840      

(N101793) 10.22E-06                   (N101839)    2.5323                       

(N101971)   13.2830                   (N102091)    8.5394                       

(N102163)-503.2E-06                   (N102217)-237.1E-06                       

(N102343)   -7.4090                   (N102447)-436.2E-06                       

(N102589)   -8.8545                   (N102841)   13.1830                       

(N102971) 57.25E-06                   (N102981)    2.5477                       

(N102995)    4.5007                   (N103139)    3.7804                       

(N103225)   -8.2166                   (N103373)    3.0226                       

(OUT_INT)   -8.2173                   (OUT_TRI)    3.7013                       

(X_U6A.1)   -8.2667                   (X_U6A.8)   -8.2667                       

(X_U7B.1)   13.6430                   (X_U7B.8)   13.6430                       

(X_U8B.1)   -9.2089                   (X_U8B.8)   -9.2089                       

(X_U9B.1)   13.2880                   (X_U9B.8)   13.2880                       

(N1026190)-986.7E-06                  (X_U10B.1)   -8.2544                      

(X_U10B.8)   -8.2544                  (X_U11B.1)    4.1980                      

(X_U11B.8)    4.1980                  (X_U6A.10)    -.7485                      

(X_U6A.11)    -.7489                  (X_U6A.12)   -2.6081                      

(X_U6A.13)   -4.9687                  (X_U6A.14)  -11.4660                      

(X_U6A.18)   -8.2472                  (X_U6A.28) 339.3E-06                      

(X_U6A.38) 339.3E-06                  (X_U6A.48) 339.3E-06                      

(X_U6A.58) 339.3E-06                  (X_U6A.59)    0.0000                      

(X_U6A.60)  -15.0000                  (X_U6A.68) 339.3E-06                      

(X_U6A.70)   15.0000                  (X_U6A.78) 339.3E-06                      

(X_U6A.80)   13.1150                  (X_U6A.90)   13.1150                      

(X_U6A.99)   -8.2667                  (X_U7B.10)    -.7206                      

(X_U7B.11)    1.7706                  (X_U7B.12)   -1.3463                      

(X_U7B.13)   16.5320                  (X_U7B.14)   10.0350                      

(X_U7B.18)   13.5010                  (X_U7B.28)   -2.5253                      

(X_U7B.38)   -2.5253                  (X_U7B.48)   -2.5253                      

(X_U7B.58)   -2.5253                  (X_U7B.59)    0.0000                      

(X_U7B.60)  -15.0000                  (X_U7B.68)   -2.5253                      

(X_U7B.70)   15.0040                  (X_U7B.78)   -2.5253                      

(X_U7B.80)   14.3660                  (X_U7B.90)   11.8400                      

(X_U7B.99)   13.6430                  (X_U8B.10)    -.7489                      

(X_U8B.11)    -.7493                  (X_U8B.12)   -2.6086                      

(X_U8B.13)   -4.9504                  (X_U8B.14)  -11.4480                      

(X_U8B.18)   -8.8100                  (X_U8B.28) 376.4E-06                      

(X_U8B.38) 376.4E-06                  (X_U8B.48) 376.4E-06                      

(X_U8B.58) 376.4E-06                  (X_U8B.59)    0.0000                      

(X_U8B.60)  -15.0000                  (X_U8B.68) 376.4E-06                      

(X_U8B.70)   15.0000                  (X_U8B.78) 376.4E-06                      

(X_U8B.80)   13.1150                  (X_U8B.90)   13.1150                      

(X_U8B.99)   -9.2089                  (X_U9B.10)   12.4330                      

(X_U9B.11)   12.5330                  (X_U9B.12)   10.5000                      

(X_U9B.13)   16.4310                  (X_U9B.14)    9.9342                      

(X_U9B.18)   13.2470                  (X_U9B.28)    -.1010                      

(X_U9B.38)    -.1010                  (X_U9B.48)    -.1010                      

(X_U9B.58)    -.1010                  (X_U9B.59)    0.0000                      

(X_U9B.60)  -15.0000                  (X_U9B.68)    -.1010                      

(X_U9B.70)   15.0000                  (X_U9B.78)    -.1010                      

(X_U9B.80)   13.0400                  (X_U9B.90)   12.9390                      

(X_U9B.99)   13.2880                  (OUT_DREPT)   -8.0752                     

(X_U10B.10)   -8.9640                 (X_U10B.11)   -8.9645                     

(X_U10B.12)  -10.7470                 (X_U10B.13)   -5.0000                     

(X_U10B.14)  -11.4650                 (X_U10B.18)   -8.2395                     

(X_U10B.28) 453.9E-06                 (X_U10B.38) 453.9E-06                     

(X_U10B.48) 453.9E-06                 (X_U10B.58) 453.9E-06                     

(X_U10B.59)    0.0000                 (X_U10B.60)  -15.0000                     

(X_U10B.68) 453.9E-06                 (X_U10B.70)   15.0000                     

(X_U10B.78) 453.9E-06                 (X_U10B.80)   13.1930                     

(X_U10B.90)   13.1930                 (X_U10B.99)   -8.2544                     

(X_U11B.10)    -.7484                 (X_U11B.11)    -.7484                     

(X_U11B.12)   -2.6078                 (X_U11B.13)    7.0290                     

(X_U11B.14)     .5318                 (X_U11B.18)    4.0330                     

(X_U11B.28)-116.8E-06                 (X_U11B.38)-116.8E-06                     

(X_U11B.48)-116.8E-06                 (X_U11B.58)-116.8E-06                     

(X_U11B.59)    0.0000                 (X_U11B.60)  -15.0000                     

(X_U11B.68)-116.8E-06                 (X_U11B.70)   15.0000                     

(X_U11B.78)-116.8E-06                 (X_U11B.80)   13.1150                     

(X_U11B.90)   13.1150                 (X_U11B.99)    4.1980                     

(X_U6A.131)   15.0000                 (X_U6A.141)  -15.0000                     

(X_U7B.131)   15.7540                 (X_U7B.141)  -15.0000                     

(X_U8B.131)   15.0000                 (X_U8B.141)  -15.0000                     

(X_U9B.131)   15.6670                 (X_U9B.141)  -15.0000                     

(X_U10B.131)   15.0000                (X_U10B.141)  -15.0000                    

(X_U11B.131)   15.0000                (X_U11B.141)  -15.0000                




    VOLTAGE SOURCE CURRENTS
    NAME         CURRENT

    V_V1        -2.098E-01
    V_V2         3.748E-01
    X_U9B.VC    -6.828E-04
    X_U9B.VE     2.493E-11
    X_U8B.VC     1.995E-11
    X_U8B.VE     3.552E-12
    X_U11B.VC    7.971E-12
    X_U11B.VE    1.553E-11
    X_U7B.VC    -1.151E-03
    X_U7B.VE     2.504E-11
    X_U6A.VC     1.997E-11
    X_U6A.VE     3.534E-12
    X_U10B.VC    3.562E-10
    X_U10B.VE    3.535E-12

    TOTAL POWER DISSIPATION   8.78E+00  WATTS

 NODE   VOLTAGE     NODE   VOLTAGE     NODE   VOLTAGE     NODE   VOLTAGE


(   V+)   15.0000  (   V-)  -15.0000  (DREPT)   -8.1990  (OUT_B)   13.2840      

(N101793) 10.22E-06                   (N101839)    2.5323                       

(N101971)   13.2830                   (N102091)    8.5394                       

(N102163)-503.2E-06                   (N102217)-237.1E-06                       

(N102343)   -7.4090                   (N102447)-436.3E-06                       

(N102589)   -8.8545                   (N102841)   13.1830                       

(N102971) 57.22E-06                   (N102981)    2.5477                       

(N102995)    4.5007                   (N103139)    3.7804                       

(N103225)   -8.2166                   (N103373)    3.0225                       

(OUT_INT)   -8.2173                   (OUT_TRI)    3.7013                       

(X_U6A.1)   -8.2667                   (X_U6A.8)   -8.2667                       

(X_U7B.1)   13.6430                   (X_U7B.8)   13.6430                       

(X_U8B.1)   -9.2078                   (X_U8B.8)   -9.2078                       

(X_U9B.1)   13.2880                   (X_U9B.8)   13.2880                       

(N1026190)-986.7E-06                  (X_U10B.1)   -8.2544                      

(X_U10B.8)   -8.2544                  (X_U11B.1)    4.1988                      

(X_U11B.8)    4.1988                  (X_U6A.10)    -.7485                      

(X_U6A.11)    -.7489                  (X_U6A.12)   -2.6081                      

(X_U6A.13)   -4.9687                  (X_U6A.14)  -11.4660                      

(X_U6A.18)   -8.2472                  (X_U6A.28) 339.3E-06                      

(X_U6A.38) 339.3E-06                  (X_U6A.48) 339.3E-06                      

(X_U6A.58) 339.3E-06                  (X_U6A.59)    0.0000                      

(X_U6A.60)  -15.0000                  (X_U6A.68) 339.3E-06                      

(X_U6A.70)   15.0000                  (X_U6A.78) 339.3E-06                      

(X_U6A.80)   13.1150                  (X_U6A.90)   13.1150                      

(X_U6A.99)   -8.2667                  (X_U7B.10)    -.7206                      

(X_U7B.11)    1.7706                  (X_U7B.12)   -1.3463                      

(X_U7B.13)   16.5320                  (X_U7B.14)   10.0350                      

(X_U7B.18)   13.5010                  (X_U7B.28)   -2.5253                      

(X_U7B.38)   -2.5253                  (X_U7B.48)   -2.5253                      

(X_U7B.58)   -2.5253                  (X_U7B.59)    0.0000                      

(X_U7B.60)  -15.0000                  (X_U7B.68)   -2.5253                      

(X_U7B.70)   15.0040                  (X_U7B.78)   -2.5253                      

(X_U7B.80)   14.3660                  (X_U7B.90)   11.8400                      

(X_U7B.99)   13.6430                  (X_U8B.10)    -.7489                      

(X_U8B.11)    -.7493                  (X_U8B.12)   -2.6086                      

(X_U8B.13)   -4.9505                  (X_U8B.14)  -11.4480                      

(X_U8B.18)   -8.8094                  (X_U8B.28) 376.3E-06                      

(X_U8B.38) 376.3E-06                  (X_U8B.48) 376.3E-06                      

(X_U8B.58) 376.3E-06                  (X_U8B.59)    0.0000                      

(X_U8B.60)  -15.0000                  (X_U8B.68) 376.3E-06                      

(X_U8B.70)   15.0000                  (X_U8B.78) 376.3E-06                      

(X_U8B.80)   13.1150                  (X_U8B.90)   13.1150                      

(X_U8B.99)   -9.2078                  (X_U9B.10)   12.4330                      

(X_U9B.11)   12.5330                  (X_U9B.12)   10.5000                      

(X_U9B.13)   16.4310                  (X_U9B.14)    9.9342                      

(X_U9B.18)   13.2470                  (X_U9B.28)    -.1010                      

(X_U9B.38)    -.1010                  (X_U9B.48)    -.1010                      

(X_U9B.58)    -.1010                  (X_U9B.59)    0.0000                      

(X_U9B.60)  -15.0000                  (X_U9B.68)    -.1010                      

(X_U9B.70)   15.0000                  (X_U9B.78)    -.1010                      

(X_U9B.80)   13.0400                  (X_U9B.90)   12.9390                      

(X_U9B.99)   13.2880                  (OUT_DREPT)   -8.0752                     

(X_U10B.10)   -8.9640                 (X_U10B.11)   -8.9645                     

(X_U10B.12)  -10.7470                 (X_U10B.13)   -5.0000                     

(X_U10B.14)  -11.4650                 (X_U10B.18)   -8.2395                     

(X_U10B.28) 453.9E-06                 (X_U10B.38) 453.9E-06                     

(X_U10B.48) 453.9E-06                 (X_U10B.58) 453.9E-06                     

(X_U10B.59)    0.0000                 (X_U10B.60)  -15.0000                     

(X_U10B.68) 453.9E-06                 (X_U10B.70)   15.0000                     

(X_U10B.78) 453.9E-06                 (X_U10B.80)   13.1930                     

(X_U10B.90)   13.1930                 (X_U10B.99)   -8.2544                     

(X_U11B.10)    -.7484                 (X_U11B.11)    -.7484                     

(X_U11B.12)   -2.6078                 (X_U11B.13)    7.0289                     

(X_U11B.14)     .5318                 (X_U11B.18)    4.0335                     

(X_U11B.28)-116.8E-06                 (X_U11B.38)-116.8E-06                     

(X_U11B.48)-116.8E-06                 (X_U11B.58)-116.8E-06                     

(X_U11B.59)    0.0000                 (X_U11B.60)  -15.0000                     

(X_U11B.68)-116.8E-06                 (X_U11B.70)   15.0000                     

(X_U11B.78)-116.8E-06                 (X_U11B.80)   13.1150                     

(X_U11B.90)   13.1150                 (X_U11B.99)    4.1988                     

(X_U6A.131)   15.0000                 (X_U6A.141)  -15.0000                     

(X_U7B.131)   15.7540                 (X_U7B.141)  -15.0000                     

(X_U8B.131)   15.0000                 (X_U8B.141)  -15.0000                     

(X_U9B.131)   15.6670                 (X_U9B.141)  -15.0000                     

(X_U10B.131)   15.0000                (X_U10B.141)  -15.0000                    

(X_U11B.131)   15.0000                (X_U11B.141)  -15.0000                




    VOLTAGE SOURCE CURRENTS
    NAME         CURRENT

    V_V1        -2.098E-01
    V_V2         3.748E-01
    X_U9B.VC    -6.828E-04
    X_U9B.VE     2.493E-11
    X_U8B.VC     1.995E-11
    X_U8B.VE     3.552E-12
    X_U11B.VC    7.971E-12
    X_U11B.VE    1.553E-11
    X_U7B.VC    -1.151E-03
    X_U7B.VE     2.504E-11
    X_U6A.VC     1.997E-11
    X_U6A.VE     3.534E-12
    X_U10B.VC    1.854E-10
    X_U10B.VE    3.535E-12

    TOTAL POWER DISSIPATION   8.78E+00  WATTS

 NODE   VOLTAGE     NODE   VOLTAGE     NODE   VOLTAGE     NODE   VOLTAGE


(   V+)   15.0000  (   V-)  -15.0000  (DREPT)   -8.1908  (OUT_B)   13.2840      

(N101793) 10.22E-06                   (N101839)    2.5323                       

(N101971)   13.2830                   (N102091)    8.5394                       

(N102163)-503.2E-06                   (N102217)-237.1E-06                       

(N102343)   -7.4008                   (N102447)-436.6E-06                       

(N102589)   -8.8467                   (N102841)   13.1830                       

(N102971) 57.22E-06                   (N102981)    2.5477                       

(N102995)    4.5007                   (N103139)    3.7804                       

(N103225)   -8.2166                   (N103373)    3.0225                       

(OUT_INT)   -8.2173                   (OUT_TRI)    3.7013                       

(X_U6A.1)   -8.2667                   (X_U6A.8)   -8.2667                       

(X_U7B.1)   13.6430                   (X_U7B.8)   13.6430                       

(X_U8B.1)   -9.1996                   (X_U8B.8)   -9.1996                       

(X_U9B.1)   13.2880                   (X_U9B.8)   13.2880                       

(N1026190)-986.7E-06                  (X_U10B.1)   -8.2544                      

(X_U10B.8)   -8.2544                  (X_U11B.1)    4.1988                      

(X_U11B.8)    4.1988                  (X_U6A.10)    -.7485                      

(X_U6A.11)    -.7489                  (X_U6A.12)   -2.6081                      

(X_U6A.13)   -4.9686                  (X_U6A.14)  -11.4660                      

(X_U6A.18)   -8.2472                  (X_U6A.28) 339.3E-06                      

(X_U6A.38) 339.3E-06                  (X_U6A.48) 339.3E-06                      

(X_U6A.58) 339.3E-06                  (X_U6A.59)    0.0000                      

(X_U6A.60)  -15.0000                  (X_U6A.68) 339.3E-06                      

(X_U6A.70)   15.0000                  (X_U6A.78) 339.3E-06                      

(X_U6A.80)   13.1150                  (X_U6A.90)   13.1150                      

(X_U6A.99)   -8.2667                  (X_U7B.10)    -.7206                      

(X_U7B.11)    1.7706                  (X_U7B.12)   -1.3463                      

(X_U7B.13)   16.5320                  (X_U7B.14)   10.0350                      

(X_U7B.18)   13.5010                  (X_U7B.28)   -2.5253                      

(X_U7B.38)   -2.5253                  (X_U7B.48)   -2.5253                      

(X_U7B.58)   -2.5253                  (X_U7B.59)    0.0000                      

(X_U7B.60)  -15.0000                  (X_U7B.68)   -2.5253                      

(X_U7B.70)   15.0040                  (X_U7B.78)   -2.5253                      

(X_U7B.80)   14.3660                  (X_U7B.90)   11.8400                      

(X_U7B.99)   13.6430                  (X_U8B.10)    -.7489                      

(X_U8B.11)    -.7493                  (X_U8B.12)   -2.6086                      

(X_U8B.13)   -4.9422                  (X_U8B.14)  -11.4390                      

(X_U8B.18)   -8.8012                  (X_U8B.28) 376.0E-06                      

(X_U8B.38) 376.0E-06                  (X_U8B.48) 376.0E-06                      

(X_U8B.58) 376.0E-06                  (X_U8B.59)    0.0000                      

(X_U8B.60)  -15.0000                  (X_U8B.68) 376.0E-06                      

(X_U8B.70)   15.0000                  (X_U8B.78) 376.0E-06                      

(X_U8B.80)   13.1150                  (X_U8B.90)   13.1150                      

(X_U8B.99)   -9.1996                  (X_U9B.10)   12.4330                      

(X_U9B.11)   12.5330                  (X_U9B.12)   10.5000                      

(X_U9B.13)   16.4310                  (X_U9B.14)    9.9342                      

(X_U9B.18)   13.2460                  (X_U9B.28)    -.1010                      

(X_U9B.38)    -.1010                  (X_U9B.48)    -.1010                      

(X_U9B.58)    -.1010                  (X_U9B.59)    0.0000                      

(X_U9B.60)  -15.0000                  (X_U9B.68)    -.1010                      

(X_U9B.70)   15.0000                  (X_U9B.78)    -.1010                      

(X_U9B.80)   13.0400                  (X_U9B.90)   12.9390                      

(X_U9B.99)   13.2880                  (OUT_DREPT)   -8.0674                     

(X_U10B.10)   -8.9640                 (X_U10B.11)   -8.9645                     

(X_U10B.12)  -10.7470                 (X_U10B.13)   -5.0000                     

(X_U10B.14)  -11.4650                 (X_U10B.18)   -8.2395                     

(X_U10B.28) 453.9E-06                 (X_U10B.38) 453.9E-06                     

(X_U10B.48) 453.9E-06                 (X_U10B.58) 453.9E-06                     

(X_U10B.59)    0.0000                 (X_U10B.60)  -15.0000                     

(X_U10B.68) 453.9E-06                 (X_U10B.70)   15.0000                     

(X_U10B.78) 453.9E-06                 (X_U10B.80)   13.1930                     

(X_U10B.90)   13.1930                 (X_U10B.99)   -8.2544                     

(X_U11B.10)    -.7484                 (X_U11B.11)    -.7484                     

(X_U11B.12)   -2.6078                 (X_U11B.13)    7.0290                     

(X_U11B.14)     .5318                 (X_U11B.18)    4.0335                     

(X_U11B.28)-116.8E-06                 (X_U11B.38)-116.8E-06                     

(X_U11B.48)-116.8E-06                 (X_U11B.58)-116.8E-06                     

(X_U11B.59)    0.0000                 (X_U11B.60)  -15.0000                     

(X_U11B.68)-116.8E-06                 (X_U11B.70)   15.0000                     

(X_U11B.78)-116.8E-06                 (X_U11B.80)   13.1150                     

(X_U11B.90)   13.1150                 (X_U11B.99)    4.1988                     

(X_U6A.131)   15.0000                 (X_U6A.141)  -15.0000                     

(X_U7B.131)   15.7540                 (X_U7B.141)  -15.0000                     

(X_U8B.131)   15.0000                 (X_U8B.141)  -15.0000                     

(X_U9B.131)   15.6670                 (X_U9B.141)  -15.0000                     

(X_U10B.131)   15.0000                (X_U10B.141)  -15.0000                    

(X_U11B.131)   15.0000                (X_U11B.141)  -15.0000                




    VOLTAGE SOURCE CURRENTS
    NAME         CURRENT

    V_V1        -2.099E-01
    V_V2         3.746E-01
    X_U9B.VC    -6.828E-04
    X_U9B.VE     2.493E-11
    X_U8B.VC     1.994E-11
    X_U8B.VE     3.561E-12
    X_U11B.VC    7.971E-12
    X_U11B.VE    1.553E-11
    X_U7B.VC    -1.151E-03
    X_U7B.VE     2.504E-11
    X_U6A.VC     1.997E-11
    X_U6A.VE     3.534E-12
    X_U10B.VC    2.066E-11
    X_U10B.VE    3.535E-12

    TOTAL POWER DISSIPATION   8.77E+00  WATTS

 NODE   VOLTAGE     NODE   VOLTAGE     NODE   VOLTAGE     NODE   VOLTAGE


(   V+)   15.0000  (   V-)  -15.0000  (DREPT)   -8.2072  (OUT_B)   13.2840      

(N101793) 10.22E-06                   (N101839)    2.5323                       

(N101971)   13.2830                   (N102091)    8.5394                       

(N102163)-503.2E-06                   (N102217)-237.1E-06                       

(N102343)   -7.4171                   (N102447)-435.8E-06                       

(N102589)   -8.8623                   (N102841)   13.1830                       

(N102971) 57.22E-06                   (N102981)    2.5477                       

(N102995)    4.5007                   (N103139)    3.7804                       

(N103225)   -8.2166                   (N103373)    3.0225                       

(OUT_INT)   -8.2173                   (OUT_TRI)    3.7013                       

(X_U6A.1)   -8.2667                   (X_U6A.8)   -8.2667                       

(X_U7B.1)   13.6430                   (X_U7B.8)   13.6430                       

(X_U8B.1)   -9.2180                   (X_U8B.8)   -9.2180                       

(X_U9B.1)   13.2880                   (X_U9B.8)   13.2880                       

(N1026190)-986.7E-06                  (X_U10B.1)   -8.2544                      

(X_U10B.8)   -8.2544                  (X_U11B.1)    4.1988                      

(X_U11B.8)    4.1988                  (X_U6A.10)    -.7485                      

(X_U6A.11)    -.7489                  (X_U6A.12)   -2.6081                      

(X_U6A.13)   -4.9687                  (X_U6A.14)  -11.4660                      

(X_U6A.18)   -8.2472                  (X_U6A.28) 339.3E-06                      

(X_U6A.38) 339.3E-06                  (X_U6A.48) 339.3E-06                      

(X_U6A.58) 339.3E-06                  (X_U6A.59)    0.0000                      

(X_U6A.60)  -15.0000                  (X_U6A.68) 339.3E-06                      

(X_U6A.70)   15.0000                  (X_U6A.78) 339.3E-06                      

(X_U6A.80)   13.1150                  (X_U6A.90)   13.1150                      

(X_U6A.99)   -8.2667                  (X_U7B.10)    -.7206                      

(X_U7B.11)    1.7706                  (X_U7B.12)   -1.3463                      

(X_U7B.13)   16.5320                  (X_U7B.14)   10.0350                      

(X_U7B.18)   13.5010                  (X_U7B.28)   -2.5253                      

(X_U7B.38)   -2.5253                  (X_U7B.48)   -2.5253                      

(X_U7B.58)   -2.5253                  (X_U7B.59)    0.0000                      

(X_U7B.60)  -15.0000                  (X_U7B.68)   -2.5253                      

(X_U7B.70)   15.0040                  (X_U7B.78)   -2.5253                      

(X_U7B.80)   14.3660                  (X_U7B.90)   11.8400                      

(X_U7B.99)   13.6430                  (X_U8B.10)    -.7489                      

(X_U8B.11)    -.7493                  (X_U8B.12)   -2.6086                      

(X_U8B.13)   -4.9586                  (X_U8B.14)  -11.4560                      

(X_U8B.18)   -8.8188                  (X_U8B.28) 376.8E-06                      

(X_U8B.38) 376.8E-06                  (X_U8B.48) 376.8E-06                      

(X_U8B.58) 376.8E-06                  (X_U8B.59)    0.0000                      

(X_U8B.60)  -15.0000                  (X_U8B.68) 376.8E-06                      

(X_U8B.70)   15.0000                  (X_U8B.78) 376.8E-06                      

(X_U8B.80)   13.1150                  (X_U8B.90)   13.1150                      

(X_U8B.99)   -9.2180                  (X_U9B.10)   12.4330                      

(X_U9B.11)   12.5330                  (X_U9B.12)   10.5000                      

(X_U9B.13)   16.4310                  (X_U9B.14)    9.9342                      

(X_U9B.18)   13.2470                  (X_U9B.28)    -.1010                      

(X_U9B.38)    -.1010                  (X_U9B.48)    -.1010                      

(X_U9B.58)    -.1010                  (X_U9B.59)    0.0000                      

(X_U9B.60)  -15.0000                  (X_U9B.68)    -.1010                      

(X_U9B.70)   15.0000                  (X_U9B.78)    -.1010                      

(X_U9B.80)   13.0400                  (X_U9B.90)   12.9390                      

(X_U9B.99)   13.2880                  (OUT_DREPT)   -8.0830                     

(X_U10B.10)   -8.9640                 (X_U10B.11)   -8.9645                     

(X_U10B.12)  -10.7470                 (X_U10B.13)   -4.0000                     

(X_U10B.14)  -11.4650                 (X_U10B.18)   -8.2395                     

(X_U10B.28) 453.9E-06                 (X_U10B.38) 453.9E-06                     

(X_U10B.48) 453.9E-06                 (X_U10B.58) 453.9E-06                     

(X_U10B.59)    0.0000                 (X_U10B.60)  -15.0000                     

(X_U10B.68) 453.9E-06                 (X_U10B.70)   15.0000                     

(X_U10B.78) 453.9E-06                 (X_U10B.80)   13.1930                     

(X_U10B.90)   13.1930                 (X_U10B.99)   -8.2544                     

(X_U11B.10)    -.7484                 (X_U11B.11)    -.7484                     

(X_U11B.12)   -2.6078                 (X_U11B.13)    7.0290                     

(X_U11B.14)     .5318                 (X_U11B.18)    4.0335                     

(X_U11B.28)-116.8E-06                 (X_U11B.38)-116.8E-06                     

(X_U11B.48)-116.8E-06                 (X_U11B.58)-116.8E-06                     

(X_U11B.59)    0.0000                 (X_U11B.60)  -15.0000                     

(X_U11B.68)-116.8E-06                 (X_U11B.70)   15.0000                     

(X_U11B.78)-116.8E-06                 (X_U11B.80)   13.1150                     

(X_U11B.90)   13.1150                 (X_U11B.99)    4.1988                     

(X_U6A.131)   15.0000                 (X_U6A.141)  -15.0000                     

(X_U7B.131)   15.7540                 (X_U7B.141)  -15.0000                     

(X_U8B.131)   15.0000                 (X_U8B.141)  -15.0000                     

(X_U9B.131)   15.6670                 (X_U9B.141)  -15.0000                     

(X_U10B.131)   15.0000                (X_U10B.141)  -15.0000                    

(X_U11B.131)   15.0000                (X_U11B.141)  -15.0000                




    VOLTAGE SOURCE CURRENTS
    NAME         CURRENT

    V_V1        -2.098E-01
    V_V2         3.751E-01
    X_U9B.VC    -6.828E-04
    X_U9B.VE     2.493E-11
    X_U8B.VC     1.996E-11
    X_U8B.VE     3.544E-12
    X_U11B.VC    7.971E-12
    X_U11B.VE    1.553E-11
    X_U7B.VC    -1.151E-03
    X_U7B.VE     2.504E-11
    X_U6A.VC     1.997E-11
    X_U6A.VE     3.534E-12
    X_U10B.VC   -3.089E-10
    X_U10B.VE    3.535E-12

    TOTAL POWER DISSIPATION   8.78E+00  WATTS

 NODE   VOLTAGE     NODE   VOLTAGE     NODE   VOLTAGE     NODE   VOLTAGE


(   V+)   15.0000  (   V-)  -15.0000  (DREPT)   -8.1990  (OUT_B)   13.2840      

(N101793) 10.22E-06                   (N101839)    2.5323                       

(N101971)   13.2830                   (N102091)    8.5394                       

(N102163)-503.2E-06                   (N102217)-237.1E-06                       

(N102343)   -7.4090                   (N102447)-437.2E-06                       

(N102589)   -8.8545                   (N102841)   13.1830                       

(N102971) 57.22E-06                   (N102981)    2.5477                       

(N102995)    4.5007                   (N103139)    3.7804                       

(N103225)   -8.2166                   (N103373)    3.0225                       

(OUT_INT)   -8.2173                   (OUT_TRI)    3.7013                       

(X_U6A.1)   -8.2667                   (X_U6A.8)   -8.2667                       

(X_U7B.1)   13.6430                   (X_U7B.8)   13.6430                       

(X_U8B.1)   -9.2089                   (X_U8B.8)   -9.2089                       

(X_U9B.1)   13.2880                   (X_U9B.8)   13.2880                       

(N1026190)-987.7E-06                  (X_U10B.1)   -8.2544                      

(X_U10B.8)   -8.2544                  (X_U11B.1)    4.1988                      

(X_U11B.8)    4.1988                  (X_U6A.10)    -.7485                      

(X_U6A.11)    -.7489                  (X_U6A.12)   -2.6081                      

(X_U6A.13)   -4.9686                  (X_U6A.14)  -11.4660                      

(X_U6A.18)   -8.2472                  (X_U6A.28) 339.3E-06                      

(X_U6A.38) 339.3E-06                  (X_U6A.48) 339.3E-06                      

(X_U6A.58) 339.3E-06                  (X_U6A.59)    0.0000                      

(X_U6A.60)  -15.0000                  (X_U6A.68) 339.3E-06                      

(X_U6A.70)   15.0000                  (X_U6A.78) 339.3E-06                      

(X_U6A.80)   13.1150                  (X_U6A.90)   13.1150                      

(X_U6A.99)   -8.2667                  (X_U7B.10)    -.7206                      

(X_U7B.11)    1.7706                  (X_U7B.12)   -1.3463                      

(X_U7B.13)   16.5320                  (X_U7B.14)   10.0350                      

(X_U7B.18)   13.5010                  (X_U7B.28)   -2.5253                      

(X_U7B.38)   -2.5253                  (X_U7B.48)   -2.5253                      

(X_U7B.58)   -2.5253                  (X_U7B.59)    0.0000                      

(X_U7B.60)  -15.0000                  (X_U7B.68)   -2.5253                      

(X_U7B.70)   15.0040                  (X_U7B.78)   -2.5253                      

(X_U7B.80)   14.3660                  (X_U7B.90)   11.8400                      

(X_U7B.99)   13.6430                  (X_U8B.10)    -.7489                      

(X_U8B.11)    -.7493                  (X_U8B.12)   -2.6086                      

(X_U8B.13)   -4.9504                  (X_U8B.14)  -11.4480                      

(X_U8B.18)   -8.8100                  (X_U8B.28) 376.4E-06                      

(X_U8B.38) 376.4E-06                  (X_U8B.48) 376.4E-06                      

(X_U8B.58) 376.4E-06                  (X_U8B.59)    0.0000                      

(X_U8B.60)  -15.0000                  (X_U8B.68) 376.4E-06                      

(X_U8B.70)   15.0000                  (X_U8B.78) 376.4E-06                      

(X_U8B.80)   13.1150                  (X_U8B.90)   13.1150                      

(X_U8B.99)   -9.2089                  (X_U9B.10)   12.4330                      

(X_U9B.11)   12.5330                  (X_U9B.12)   10.5000                      

(X_U9B.13)   16.4310                  (X_U9B.14)    9.9342                      

[...]

(N101793) 10.22E-06                   (N101839)    2.5323                       

(N101971)   13.2830                   (N102091)    8.5394                       

(N102163)-503.2E-06                   (N102217)-237.1E-06                       

(N102343)   -7.4090                   (N102447)-436.2E-06                       

(N102589)   -8.8546                   (N102841)   13.1830                       

(N102971) 57.22E-06                   (N102981)    2.5477                       

(N102995)    4.5007                   (N103139)    3.7804                       

(N103225)   -8.2166                   (N103373)    3.0225                       

(OUT_INT)   -8.2173                   (OUT_TRI)    3.7013                       

(X_U6A.1)   -8.2667                   (X_U6A.8)   -8.2667                       

(X_U7B.1)   13.6430                   (X_U7B.8)   13.6430                       

(X_U8B.1)   -9.2086                   (X_U8B.8)   -9.2086                       

(X_U9B.1)   13.2880                   (X_U9B.8)   13.2880                       

(N1026190)-986.7E-06                  (X_U10B.1)   -8.2544                      

(X_U10B.8)   -8.2544                  (X_U11B.1)    4.1988                      

(X_U11B.8)    4.1988                  (X_U6A.10)    -.7485                      

(X_U6A.11)    -.7489                  (X_U6A.12)   -2.6081                      

(X_U6A.13)   -4.9687                  (X_U6A.14)  -11.4660                      

(X_U6A.18)   -8.2472                  (X_U6A.28) 339.3E-06                      

(X_U6A.38) 339.3E-06                  (X_U6A.48) 339.3E-06                      

(X_U6A.58) 339.3E-06                  (X_U6A.59)    0.0000                      

(X_U6A.60)  -15.0000                  (X_U6A.68) 339.3E-06                      

(X_U6A.70)   15.0000                  (X_U6A.78) 339.3E-06                      

(X_U6A.80)   13.1150                  (X_U6A.90)   13.1150                      

(X_U6A.99)   -8.2667                  (X_U7B.10)    -.7206                      

(X_U7B.11)    1.7706                  (X_U7B.12)   -1.3463                      

(X_U7B.13)   16.5320                  (X_U7B.14)   10.0350                      

(X_U7B.18)   13.5010                  (X_U7B.28)   -2.5253                      

(X_U7B.38)   -2.5253                  (X_U7B.48)   -2.5253                      

(X_U7B.58)   -2.5253                  (X_U7B.59)    0.0000                      

(X_U7B.60)  -15.0000                  (X_U7B.68)   -2.5253                      

(X_U7B.70)   15.0040                  (X_U7B.78)   -2.5253                      

(X_U7B.80)   14.3660                  (X_U7B.90)   11.8400                      

(X_U7B.99)   13.6430                  (X_U8B.10)    -.7489                      

(X_U8B.11)    -.7493                  (X_U8B.12)   -2.6086                      

(X_U8B.13)   -4.9504                  (X_U8B.14)  -11.4480                      

(X_U8B.18)   -8.8098                  (X_U8B.28) 376.4E-06                      

(X_U8B.38) 376.4E-06                  (X_U8B.48) 376.4E-06                      

(X_U8B.58) 376.4E-06                  (X_U8B.59)    0.0000                      

(X_U8B.60)  -15.0000                  (X_U8B.68) 376.4E-06                      

(X_U8B.70)   15.0000                  (X_U8B.78) 376.4E-06                      

(X_U8B.80)   13.1150                  (X_U8B.90)   13.1150                      

(X_U8B.99)   -9.2086                  (X_U9B.10)   12.4330                      

(X_U9B.11)   12.5330                  (X_U9B.12)   10.5000                      

(X_U9B.13)   16.4310                  (X_U9B.14)    9.9342                      

(X_U9B.18)   13.2470                  (X_U9B.28)    -.1010                      

(X_U9B.38)    -.1010                  (X_U9B.48)    -.1010                      

(X_U9B.58)    -.1010                  (X_U9B.59)    0.0000                      

(X_U9B.60)  -15.0000                  (X_U9B.68)    -.1010                      

(X_U9B.70)   15.0000                  (X_U9B.78)    -.1010                      

(X_U9B.80)   13.0400                  (X_U9B.90)   12.9390                      

(X_U9B.99)   13.2880                  (OUT_DREPT)   -8.0754                     

(X_U10B.10)   -8.9640                 (X_U10B.11)   -8.9645                     

(X_U10B.12)  -10.7470                 (X_U10B.13)   -5.0000                     

(X_U10B.14)  -11.4650                 (X_U10B.18)   -8.2395                     

(X_U10B.28) 453.9E-06                 (X_U10B.38) 453.9E-06                     

(X_U10B.48) 453.9E-06                 (X_U10B.58) 453.9E-06                     

(X_U10B.59)    0.0000                 (X_U10B.60)  -15.0000                     

(X_U10B.68) 453.9E-06                 (X_U10B.70)   15.0000                     

(X_U10B.78) 453.9E-06                 (X_U10B.80)   13.1930                     

(X_U10B.90)   13.1930                 (X_U10B.99)   -8.2544                     

(X_U11B.10)    -.7484                 (X_U11B.11)    -.7484                     

(X_U11B.12)   -2.6078                 (X_U11B.13)    7.0290                     

(X_U11B.14)     .5318                 (X_U11B.18)    4.0335                     

(X_U11B.28)-116.8E-06                 (X_U11B.38)-116.8E-06                     

(X_U11B.48)-116.8E-06                 (X_U11B.58)-116.8E-06                     

(X_U11B.59)    0.0000                 (X_U11B.60)  -15.0000                     

(X_U11B.68)-116.8E-06                 (X_U11B.70)   15.0000                     

(X_U11B.78)-116.8E-06                 (X_U11B.80)   13.1150                     

(X_U11B.90)   13.1150                 (X_U11B.99)    4.1988                     

(X_U6A.131)   15.0000                 (X_U6A.141)  -15.0000                     

(X_U7B.131)   15.7540                 (X_U7B.141)  -15.0000                     

(X_U8B.131)   15.0000                 (X_U8B.141)  -15.0000                     

(X_U9B.131)   15.6670                 (X_U9B.141)  -15.0000                     

(X_U10B.131)   15.0000                (X_U10B.141)  -15.0000                    

(X_U11B.131)   15.0000                (X_U11B.141)  -15.0000                




    VOLTAGE SOURCE CURRENTS
    NAME         CURRENT

    V_V1        -2.099E-01
    V_V2         3.746E-01
    X_U9B.VC    -6.828E-04
    X_U9B.VE     2.493E-11
    X_U8B.VC     1.995E-11
    X_U8B.VE     3.552E-12
    X_U11B.VC    7.972E-12
    X_U11B.VE    1.553E-11
    X_U7B.VC    -1.151E-03
    X_U7B.VE     2.504E-11
    X_U6A.VC     1.997E-11
    X_U6A.VE     3.534E-12
    X_U10B.VC   -2.419E-10
    X_U10B.VE    3.535E-12

    TOTAL POWER DISSIPATION   8.77E+00  WATTS



Mean Deviation =    -.1509
Sigma          =    4.4605

 RUN                    MAX DEVIATION FROM NOMINAL

R_R3 R_R3 R             5.0773  (1.14 sigma)  higher  at T =    2.0000E-03
                        (  -1.2411E+03% change per 1% change in Model Parameter)

C_C1 C_C1 C             4.8254  (1.08 sigma)  higher  at T =    2.0000E-03
                        (  -1.1796E+03% change per 1% change in Model Parameter)

R_R1 R_R1 R             4.7984  (1.08 sigma)  higher  at T =    2.0000E-03
                        (  -1.1730E+03% change per 1% change in Model Parameter)

R_R8 R_R8 R             4.391   ( .98 sigma)  lower  at T =  689.3400E-06
                        (  13.7990E+03% change per 1% change in Model Parameter)

R_R17 R_R17 R           4.3887  ( .98 sigma)  lower  at T =  484.3500E-06
                        ( -10.2960E+03% change per 1% change in Model Parameter)

R_R34 R_R34 R           4.3872  ( .98 sigma)  higher  at T =    1.8975E-03
                        (  -1.3727E+03% change per 1% change in Model Parameter)

R_R6 R_R6 R             4.3811  ( .98 sigma)  lower  at T =    1.9304E-03
                        (  46.6620E+03% change per 1% change in Model Parameter)

R_R5 R_R5 R             4.3806  ( .98 sigma)  lower  at T =  484.3700E-06
                        ( -10.2780E+03% change per 1% change in Model Parameter)

R_R15 R_R15 R           4.3802  ( .98 sigma)  higher  at T =  555.9700E-06
                        (  -1.1631E+03% change per 1% change in Model Parameter)

R_R16 R_R16 R           4.3801  ( .98 sigma)  higher  at T =    1.8954E-03
                        (  -1.3704E+03% change per 1% change in Model Parameter)

R_R32 R_R32 R           4.3799  ( .98 sigma)  lower  at T =  688.1100E-06
                        (  13.7640E+03% change per 1% change in Model Parameter)

R_R31 R_R31 R           4.3791  ( .98 sigma)  lower  at T =  378.3900E-06
                        (  12.8370E+03% change per 1% change in Model Parameter)

C_C2 C_C2 C             4.379   ( .98 sigma)  lower  at T =    1.7250E-03
                        ( -18.5170E+03% change per 1% change in Model Parameter)

R_R33 R_R33 R           4.3776  ( .98 sigma)  lower  at T =  688.1100E-06
                        (  13.7560E+03% change per 1% change in Model Parameter)

R_R28 R_R28 R           4.3699  ( .98 sigma)  lower  at T =  688.8300E-06
                        (  13.7320E+03% change per 1% change in Model Parameter)

R_R7 R_R7 R             4.3662  ( .98 sigma)  higher  at T =  142.8200E-06
                        (  -1.1337E+03% change per 1% change in Model Parameter)

R_R30 R_R30 R           4.3632  ( .98 sigma)  lower  at T =   67.0910E-06
                        (   9.9528E+03% change per 1% change in Model Parameter)

R_R29 R_R29 R           4.3628  ( .98 sigma)  higher  at T =  142.4700E-06
                        (  -1.1328E+03% change per 1% change in Model Parameter)

R_R4 R_R4 R             4.346   ( .97 sigma)  higher  at T =   41.5690E-06
                        (  -1.0926E+03% change per 1% change in Model Parameter)


**** 05/19/23 14:49:18 ****** PSpice 17.2.0 (March 2016) ****** ID# 0 ********

 ** Profile: "SCHEMATIC1-worst case "  [ c:\users\razvan.cacu\desktop\proiect cad\cad-pspicefiles\schematic1\worst case .sim ] 


 ****     INITIAL TRANSIENT SOLUTION       TEMPERATURE =   27.000 DEG C

                      WORST CASE ALL DEVICES

******************************************************************************



 NODE   VOLTAGE     NODE   VOLTAGE     NODE   VOLTAGE     NODE   VOLTAGE


(   V+)   15.0000  (   V-)  -15.0000  (DREPT)   -7.9473  (OUT_B)   13.2780      

(N101793) 10.11E-06                   (N101839)    2.1868                       

(N101971)   13.2780                   (N102091)    8.3783                       

(N102163)-528.4E-06                   (N102217)-315.5E-06                       

(N102343)   -7.1553                   (N102447)-392.4E-06                       

(N102589)   -8.6044                   (N102841)   13.1820                       

(N102971) 55.18E-06                   (N102981)    2.4973                       

(N102995)    4.4865                   (N103139)    3.7692                       

(N103225)   -8.9020                   (N103373)    3.0080                       

(OUT_INT)   -8.9026                   (OUT_TRI)    3.6868                       

(X_U6A.1)   -8.9512                   (X_U6A.8)   -8.9512                       

(X_U7B.1)   13.6320                   (X_U7B.8)   13.6320                       

(X_U8B.1)   -8.9977                   (X_U8B.8)   -8.9977                       

(X_U9B.1)   13.2880                   (X_U9B.8)   13.2880                       

(N1026190)-937.4E-06                  (X_U10B.1)   -8.9410                      

(X_U10B.8)   -8.9410                  (X_U11B.1)    4.2544                      

(X_U11B.8)    4.2544                  (X_U6A.10)    -.7485                      

(X_U6A.11)    -.7489                  (X_U6A.12)   -2.6081                      

(X_U6A.13)   -5.6540                  (X_U6A.14)  -12.1510                      

(X_U6A.18)   -8.9320                  (X_U6A.28) 364.4E-06                      

(X_U6A.38) 364.4E-06                  (X_U6A.48) 364.4E-06                      

(X_U6A.58) 364.4E-06                  (X_U6A.59)    0.0000                      

(X_U6A.60)  -15.0000                  (X_U6A.68) 364.4E-06                      

(X_U6A.70)   15.0000                  (X_U6A.78) 364.4E-06                      

(X_U6A.80)   13.1150                  (X_U6A.90)   13.1150                      

(X_U6A.99)   -8.9512                  (X_U7B.10)    -.7268                      

(X_U7B.11)    1.4265                  (X_U7B.12)   -1.5198                      

(X_U7B.13)   16.5260                  (X_U7B.14)   10.0290                      

(X_U7B.18)   13.4920                  (X_U7B.28)   -2.1829                      

(X_U7B.38)   -2.1829                  (X_U7B.48)   -2.1829                      

(X_U7B.58)   -2.1829                  (X_U7B.59)    0.0000                      

(X_U7B.60)  -15.0000                  (X_U7B.68)   -2.1829                      

(X_U7B.70)   15.0030                  (X_U7B.78)   -2.1829                      

(X_U7B.80)   14.1960                  (X_U7B.90)   12.0130                      

(X_U7B.99)   13.6320                  (X_U8B.10)    -.7489                      

(X_U8B.11)    -.7493                  (X_U8B.12)   -2.6085                      

(X_U8B.13)   -4.6987                  (X_U8B.14)  -11.1960                      

(X_U8B.18)   -8.5828                  (X_U8B.28) 370.9E-06                      

(X_U8B.38) 370.9E-06                  (X_U8B.48) 370.9E-06                      

(X_U8B.58) 370.9E-06                  (X_U8B.59)    0.0000                      

(X_U8B.60)  -15.0000                  (X_U8B.68) 370.9E-06                      

(X_U8B.70)   15.0000                  (X_U8B.78) 370.9E-06                      

(X_U8B.80)   13.1150                  (X_U8B.90)   13.1150                      

(X_U8B.99)   -8.9977                  (X_U9B.10)   12.4320                      

(X_U9B.11)   12.5270                  (X_U9B.12)   10.4970                      

(X_U9B.13)   16.4300                  (X_U9B.14)    9.9329                      

(X_U9B.18)   13.2460                  (X_U9B.28)    -.0966                      

(X_U9B.38)    -.0966                  (X_U9B.48)    -.0966                      

(X_U9B.58)    -.0966                  (X_U9B.59)    0.0000                      

(X_U9B.60)  -15.0000                  (X_U9B.68)    -.0966                      

(X_U9B.70)   15.0000                  (X_U9B.78)    -.0966                      

(X_U9B.80)   13.0380                  (X_U9B.90)   12.9420                      

(X_U9B.99)   13.2880                  (OUT_DREPT)   -7.8260                     

(X_U10B.10)   -9.6493                 (X_U10B.11)   -9.6498                     

(X_U10B.12)  -11.4260                 (X_U10B.13)   -6.0000                     

(X_U10B.14)  -12.1510                 (X_U10B.18)   -8.9256                     

(X_U10B.28) 488.6E-06                 (X_U10B.38) 488.6E-06                     

(X_U10B.48) 488.6E-06                 (X_U10B.58) 488.6E-06                     

(X_U10B.59)    0.0000                 (X_U10B.60)  -15.0000                     

(X_U10B.68) 488.6E-06                 (X_U10B.70)   15.0000                     

(X_U10B.78) 488.6E-06                 (X_U10B.80)   13.1990                     

(X_U10B.90)   13.2000                 (X_U10B.99)   -8.9410                     

(X_U11B.10)    -.7484                 (X_U11B.11)    -.7484                     

(X_U11B.12)   -2.6078                 (X_U11B.13)    7.0178                     

(X_U11B.14)     .5206                 (X_U11B.18)    4.0627                     

(X_U11B.28)-118.8E-06                 (X_U11B.38)-118.8E-06                     

(X_U11B.48)-118.8E-06                 (X_U11B.58)-118.8E-06                     

(X_U11B.59)    0.0000                 (X_U11B.60)  -15.0000                     

(X_U11B.68)-118.8E-06                 (X_U11B.70)   15.0000                     

(X_U11B.78)-118.8E-06                 (X_U11B.80)   13.1150                     

(X_U11B.90)   13.1150                 (X_U11B.99)    4.2544                     

(X_U6A.131)   15.0000                 (X_U6A.141)  -15.0000                     

(X_U7B.131)   15.7500                 (X_U7B.141)  -15.0000                     

(X_U8B.131)   15.0000                 (X_U8B.141)  -15.0000                     

(X_U9B.131)   15.6660                 (X_U9B.141)  -15.0000                     

(X_U10B.131)   15.0000                (X_U10B.141)  -15.0000                    

(X_U11B.131)   15.0000                (X_U11B.141)  -15.0000                




    VOLTAGE SOURCE CURRENTS
    NAME         CURRENT

    V_V1        -2.121E-01
    V_V2         3.699E-01
    X_U9B.VC    -6.809E-04
    X_U9B.VE     2.493E-11
    X_U8B.VC     1.970E-11
    X_U8B.VE     3.804E-12
    X_U11B.VC    7.982E-12
    X_U11B.VE    1.552E-11
    X_U7B.VC    -1.093E-03
    X_U7B.VE     2.503E-11
    X_U6A.VC     2.065E-11
    X_U6A.VE     2.849E-12
    X_U10B.VC   -1.827E-10
    X_U10B.VE    2.850E-12

    TOTAL POWER DISSIPATION   8.74E+00  WATTS


**** 05/19/23 14:49:18 ****** PSpice 17.2.0 (March 2016) ****** ID# 0 ********

 ** Profile: "SCHEMATIC1-worst case "  [ c:\users\razvan.cacu\desktop\proiect cad\cad-pspicefiles\schematic1\worst case .sim ] 


 ****     UPDATED MODEL PARAMETERS         TEMPERATURE =   27.000 DEG C

                      WORST CASE ALL DEVICES

******************************************************************************



Device       MODEL        PARAMETER    NEW VALUE    
C_C2         C_C2         C                .9           (Decreased)  
C_C1         C_C1         C               1.05          (Increased)  
R_R34        R_R34        R               1.05          (Increased)  
R_R31        R_R31        R                .95          (Decreased)  
R_R32        R_R32        R                .95          (Decreased)  
R_R5         R_R5         R                .98          (Decreased)  
R_R6         R_R6         R                .95          (Decreased)  
R_R17        R_R17        R                .95          (Decreased)  
R_R8         R_R8         R                .95          (Decreased)  
R_R29        R_R29        R               1.05          (Increased)  
R_R30        R_R30        R                .99          (Decreased)  
R_R1         R_R1         R               1.01          (Increased)  
R_R15        R_R15        R               1.05          (Increased)  
R_R28        R_R28        R                .95          (Decreased)  
R_R3         R_R3         R               1.05          (Increased)  
R_R7         R_R7         R               1.05          (Increased)  
R_R16        R_R16        R               1.05          (Increased)  
R_R4         R_R4         R               1.05          (Increased)  
R_R33        R_R33        R                .99          (Decreased)  
    

**** 05/19/23 14:49:18 ****** PSpice 17.2.0 (March 2016) ****** ID# 0 ********

 ** Profile: "SCHEMATIC1-worst case "  [ c:\users\razvan.cacu\desktop\proiect cad\cad-pspicefiles\schematic1\worst case .sim ] 


 ****     SORTED DEVIATIONS OF V(OUT_TRI)  TEMPERATURE =   27.000 DEG C

                      WORST CASE SUMMARY

******************************************************************************





Mean Deviation =  -11.358
Sigma          =    0     

 RUN                    MAX DEVIATION FROM NOMINAL

WORST CASE ALL DEVICES
                        11.358  lower  at T =  612.0200E-06
                        ( -92.915% of Nominal)



          JOB CONCLUDED

**** 05/19/23 14:49:18 ****** PSpice 17.2.0 (March 2016) ****** ID# 0 ********

 ** Profile: "SCHEMATIC1-worst case "  [ c:\users\razvan.cacu\desktop\proiect cad\cad-pspicefiles\schematic1\worst case .sim ] 


 ****     JOB STATISTICS SUMMARY


******************************************************************************



  Total job time (using Solver 1)   =       43.17
