
**** 05/19/23 13:49:02 ****** PSpice 17.2.0 (March 2016) ****** ID# 0 ********

 ** Profile: "SCHEMATIC1-monte carlo"  [ c:\users\razvan.cacu\desktop\proiect cad\cad-pspicefiles\schematic1\monte carlo.sim ] 


 ****     CIRCUIT DESCRIPTION


******************************************************************************




** Creating circuit file "monte carlo.cir" 
** WARNING: THIS AUTOMATICALLY GENERATED FILE MAY BE OVERWRITTEN BY SUBSEQUENT SIMULATIONS

*Libraries: 
* Profile Libraries :
* Local Libraries :
* From [PSPICE NETLIST] section of C:\SPB_Data\cdssetup\OrCAD_PSpice\17.2.0\PSpice.ini file:
.lib "nom.lib" 

*Analysis directives: 
.TRAN  0 2ms 0 
.MC 20 TRAN v([OUT_TRI]) YMAX OUTPUT ALL SEED=400 
.OPTIONS ADVCONV
.PROBE64 V(alias(*)) I(alias(*)) W(alias(*)) D(alias(*)) NOISE(alias(*)) 
.INC "..\SCHEMATIC1.net" 



**** INCLUDING SCHEMATIC1.net ****
* source CAD
R_R34         V- N102589 R_R34 1k TC=0,0 
.model        R_R34 RES R=1 DEV=5% TC1=0 TC2=0
R_R31         V- N103373 R_R31 1k TC=0,0 
.model        R_R31 RES R=1 DEV=5% TC1=0 TC2=0
R_R32         N102343 V+ R_R32 1k TC=0,0 
.model        R_R32 RES R=1 DEV=5% TC1=0 TC2=0
X_U9B         OUT_B N102841 V+ V- N102841 LT1359/LT
R_R5         N102841 N102447 R_R5 8.2k TC=0,0 
.model        R_R5 RES R=1 DEV=2% TC1=0 TC2=0
R_R6         N102447 DREPT R_R6 5.1k TC=0,0 
.model        R_R6 RES R=1 DEV=5% TC1=0 TC2=0
V_V1         V+ 0 15V
R_R17         0 N1026190 R_R17 10k TC=0,0 
.model        R_R17 RES R=1 DEV=5% TC1=0 TC2=0
R_R8         N102971 N102981 R_R8 3.1k TC=0,0 
.model        R_R8 RES R=1 DEV=5% TC1=0 TC2=0
D_D8         DREPT N102589 D1N3604 
R_R29         N102995 V+ R_R29 1k TC=0,0 
.model        R_R29 RES R=1 DEV=5% TC1=0 TC2=0
R_R30         0 OUT_TRI R_R30 25 TC=0,0 
.model        R_R30 RES R=1 DEV=1% TC1=0 TC2=0
X_U8B         N1026190 N102447 V+ V- DREPT LT1359/LT
R_R1         N101971 N101793 R_R1 2.6k TC=0,0 
.model        R_R1 RES R=1 DEV=1% TC1=0 TC2=0
X_U11B         0 N102971 V+ V- N103139 LT1359/LT
X_U7B         N101839 N102217 V+ V- OUT_B LT1359/LT
V_V2         V- 0 -15V
C_C2         0 DREPT C_C2 10n  TC=0,0 
.model        C_C2 CAP C=1 DEV=10% TC1=0 TC2=0 VC1=0 VC2=0
X_U6A         N102163 N101793 V+ V- OUT_INT LT1359/LT
C_C1         N101793 OUT_INT C_C1 10n  TC=0,0 
.model        C_C1 CAP C=1 DEV=5% TC1=0 TC2=0 VC1=0 VC2=0
R_R15         0 N102217 R_R15 5.1k TC=0,0 
.model        R_R15 RES R=1 DEV=5% TC1=0 TC2=0
D_D7         N102343 DREPT D1N3604 
R_R28         0 N102091 R_R28 18k TC=0,0 
.model        R_R28 RES R=1 DEV=5% TC1=0 TC2=0
R_R3         OUT_INT N101839 R_R3 10k TC=0,0 
.model        R_R3 RES R=1 DEV=5% TC1=0 TC2=0
X_P2         N102981 N102981 N103139 POT PARAMS: SET={a} VALUE=1.5k
R_R7         N103225 N102971 R_R7 10k TC=0,0 
.model        R_R7 RES R=1 DEV=5% TC1=0 TC2=0
R_R16         0 N102163 R_R16 5.1k TC=0,0 
.model        R_R16 RES R=1 DEV=5% TC1=0 TC2=0
R_R4         N101839 OUT_B R_R4 10k TC=0,0 
.model        R_R4 RES R=1 DEV=5% TC1=0 TC2=0
R_R33         0 OUT_DREPT R_R33 25 TC=0,0 
.model        R_R33 RES R=1 DEV=1% TC1=0 TC2=0
X_U10B         OUT_INT N103225 V+ V- N103225 LT1359/LT
X_P1         N102091 N101971 OUT_B POT PARAMS: SET={set} VALUE=10k
Q_Q14         V+ N102995 OUT_TRI Q2N2222A/ZTX 
Q_Q15         V- N103373 OUT_TRI TIP32
Q_Q16         V- N102589 OUT_DREPT TIP32
Q_Q17         V+ N102343 OUT_DREPT Q2N2222A/ZTX 
D_D11         N102995 N103139 D1N4148 
D_D12         N103139 N103373 D1N4148 
.IC         V(N101793 )=0
.PARAM  a=0 set=0

**** RESUMING "monte carlo.cir" ****
.END

**** 05/19/23 13:49:02 ****** PSpice 17.2.0 (March 2016) ****** ID# 0 ********

 ** Profile: "SCHEMATIC1-monte carlo"  [ c:\users\razvan.cacu\desktop\proiect cad\cad-pspicefiles\schematic1\monte carlo.sim ] 


 ****     Diode MODEL PARAMETERS


******************************************************************************




               D1N3604         D1N4148         X_U9B.DM1       X_U9B.DM2       
          IS  980.800000E-21    2.682000E-09   10.000000E-21  800.000000E-18 
           N                    1.836                                        
         ISR   12.270000E-09    1.565000E-09                                 
         IKF                     .04417                                      
          BV   75             100                              43.2          
         IBV    5.000000E-06  100.000000E-06                                 
          RS     .1              .5664                                       
          TT    5.771000E-09   11.540000E-09                                 
         CJO    2.000000E-12    4.000000E-12                                 
          VJ     .75             .5                                          
           M     .3333           .3333                                       


               X_U9B.DM3       X_U8B.DM1       X_U8B.DM2       X_U8B.DM3       
          IS  100.000000E-18   10.000000E-21  800.000000E-18  100.000000E-18 
          BV                                   43.2                          


               X_U11B.DM1      X_U11B.DM2      X_U11B.DM3      X_U7B.DM1       
          IS   10.000000E-21  800.000000E-18  100.000000E-18   10.000000E-21 
          BV                   43.2                                          


               X_U7B.DM2       X_U7B.DM3       X_U6A.DM1       X_U6A.DM2       
          IS  800.000000E-18  100.000000E-18   10.000000E-21  800.000000E-18 
          BV   43.2                                            43.2          


               X_U6A.DM3       X_U10B.DM1      X_U10B.DM2      X_U10B.DM3      
          IS  100.000000E-18   10.000000E-21  800.000000E-18  100.000000E-18 
          BV                                   43.2                          


**** 05/19/23 13:49:02 ****** PSpice 17.2.0 (March 2016) ****** ID# 0 ********

 ** Profile: "SCHEMATIC1-monte carlo"  [ c:\users\razvan.cacu\desktop\proiect cad\cad-pspicefiles\schematic1\monte carlo.sim ] 


 ****     BJT MODEL PARAMETERS


******************************************************************************




               Q2N2222A/ZTX    TIP32           X_U9B.QM1       X_U9B.QM2       
               NPN             PNP             NPN             NPN             
       LEVEL    1               1               1               1            
          IS   30.611000E-15   51.230000E-15  800.000000E-18  804.630000E-18 
          BF  220             434.1            21.429000E+03   30.000000E+03 
          NF    1.00124         1               1               1            
         VAF  104             100                                            
         IKF     .52             .3883                                       
         ISE    7.500000E-15   51.230000E-15                                 
          NE    1.41            1.22                                         
          BR    4              55.47            1               1            
          NR    1.005           1               1               1            
         VAR   28                                                            
         IKR     .24           10.87                                         
         ISC   10.652500E-12   51.230000E-15                                 
          NC    1.3728          1.205                                        
          NK                     .5544                                       
         ISS    0               0               0               0            
          RB     .13             .1                                          
          RE     .22            0               0               0            
          RC     .12             .3443          0               0            
         CJE   27.010000E-12  179.900000E-12    0               0            
         VJE     .75             .75             .75             .75         
         MJE                     .4294                                       
         CJC    9.120000E-12  136.900000E-12    0               0            
         VJC     .4089           .75             .75             .75         
         MJC     .3508           .3155           .33             .33         
        XCJC    1               1               1               1            
         CJS    0               0               0               0            
         VJS     .75             .75             .75             .75         
          TF  325.000000E-12   13.050000E-09                                 
         XTF                    1.573                                        
         VTF                   10                                            
         ITF                    6.85                                         
          TR  100.000000E-09   20.250000E-09                                 
         XTB                    2.2                                          
          KF    0               0               0               0            
          AF    1               1               1               1            
          CN    2.42            2.2             2.42            2.42         
           D     .87             .52             .87             .87         


               X_U9B.QM3       X_U9B.QM4       X_U8B.QM1       X_U8B.QM2       
               NPN             PNP             NPN             NPN             
       LEVEL    1               1               1               1            
          IS  800.000000E-18  800.000000E-18  800.000000E-18  804.630000E-18 
          BF  100             100              21.429000E+03   30.000000E+03 
          NF    1               1               1               1            
          BR    1               1               1               1            
          NR    1               1               1               1            
         ISS    0               0               0               0            
          RE    0               0               0               0            
          RC    0               0               0               0            
         CJE    0               0               0               0            
         VJE     .75             .75             .75             .75         
         CJC    0               0               0               0            
         VJC     .75             .75             .75             .75         
         MJC     .33             .33             .33             .33         
        XCJC    1               1               1               1            
         CJS    0               0               0               0            
         VJS     .75             .75             .75             .75         
          KF    0               0               0               0            
          AF    1               1               1               1            
          CN    2.42            2.2             2.42            2.42         
           D     .87             .52             .87             .87         


               X_U8B.QM3       X_U8B.QM4       X_U11B.QM1      X_U11B.QM2      
               NPN             PNP             NPN             NPN             
       LEVEL    1               1               1               1            
          IS  800.000000E-18  800.000000E-18  800.000000E-18  804.630000E-18 
          BF  100             100              21.429000E+03   30.000000E+03 
          NF    1               1               1               1            
          BR    1               1               1               1            
          NR    1               1               1               1            
         ISS    0               0               0               0            
          RE    0               0               0               0            
          RC    0               0               0               0            
         CJE    0               0               0               0            
         VJE     .75             .75             .75             .75         
         CJC    0               0               0               0            
         VJC     .75             .75             .75             .75         
         MJC     .33             .33             .33             .33         
        XCJC    1               1               1               1            
         CJS    0               0               0               0            
         VJS     .75             .75             .75             .75         
          KF    0               0               0               0            
          AF    1               1               1               1            
          CN    2.42            2.2             2.42            2.42         
           D     .87             .52             .87             .87         


               X_U11B.QM3      X_U11B.QM4      X_U7B.QM1       X_U7B.QM2       
               NPN             PNP             NPN             NPN             
       LEVEL    1               1               1               1            
          IS  800.000000E-18  800.000000E-18  800.000000E-18  804.630000E-18 
          BF  100             100              21.429000E+03   30.000000E+03 
          NF    1               1               1               1            
          BR    1               1               1               1            
          NR    1               1               1               1            
         ISS    0               0               0               0            
          RE    0               0               0               0            
          RC    0               0               0               0            
         CJE    0               0               0               0            
         VJE     .75             .75             .75             .75         
         CJC    0               0               0               0            
         VJC     .75             .75             .75             .75         
         MJC     .33             .33             .33             .33         
        XCJC    1               1               1               1            
         CJS    0               0               0               0            
         VJS     .75             .75             .75             .75         
          KF    0               0               0               0            
          AF    1               1               1               1            
          CN    2.42            2.2             2.42            2.42         
           D     .87             .52             .87             .87         


               X_U7B.QM3       X_U7B.QM4       X_U6A.QM1       X_U6A.QM2       
               NPN             PNP             NPN             NPN             
       LEVEL    1               1               1               1            
          IS  800.000000E-18  800.000000E-18  800.000000E-18  804.630000E-18 
          BF  100             100              21.429000E+03   30.000000E+03 
          NF    1               1               1               1            
          BR    1               1               1               1            
          NR    1               1               1               1            
         ISS    0               0               0               0            
          RE    0               0               0               0            
          RC    0               0               0               0            
         CJE    0               0               0               0            
         VJE     .75             .75             .75             .75         
         CJC    0               0               0               0            
         VJC     .75             .75             .75             .75         
         MJC     .33             .33             .33             .33         
        XCJC    1               1               1               1            
         CJS    0               0               0               0            
         VJS     .75             .75             .75             .75         
          KF    0               0               0               0            
          AF    1               1               1               1            
          CN    2.42            2.2             2.42            2.42         
           D     .87             .52             .87             .87         


               X_U6A.QM3       X_U6A.QM4       X_U10B.QM1      X_U10B.QM2      
               NPN             PNP             NPN             NPN             
       LEVEL    1               1               1               1            
          IS  800.000000E-18  800.000000E-18  800.000000E-18  804.630000E-18 
          BF  100             100              21.429000E+03   30.000000E+03 
          NF    1               1               1               1            
          BR    1               1               1               1            
          NR    1               1               1               1            
         ISS    0               0               0               0            
          RE    0               0               0               0            
          RC    0               0               0               0            
         CJE    0               0               0               0            
         VJE     .75             .75             .75             .75         
         CJC    0               0               0               0            
         VJC     .75             .75             .75             .75         
         MJC     .33             .33             .33             .33         
        XCJC    1               1               1               1            
         CJS    0               0               0               0            
         VJS     .75             .75             .75             .75         
          KF    0               0               0               0            
          AF    1               1               1               1            
          CN    2.42            2.2             2.42            2.42         
           D     .87             .52             .87             .87         


               X_U10B.QM3      X_U10B.QM4      
               NPN             PNP             
       LEVEL    1               1            
          IS  800.000000E-18  800.000000E-18 
          BF  100             100            
          NF    1               1            
          BR    1               1            
          NR    1               1            
         ISS    0               0            
          RE    0               0            
          RC    0               0            
         CJE    0               0            
         VJE     .75             .75         
         CJC    0               0            
         VJC     .75             .75         
         MJC     .33             .33         
        XCJC    1               1            
         CJS    0               0            
         VJS     .75             .75         
          KF    0               0            
          AF    1               1            
          CN    2.42            2.2          
           D     .87             .52         


**** 05/19/23 13:49:02 ****** PSpice 17.2.0 (March 2016) ****** ID# 0 ********

 ** Profile: "SCHEMATIC1-monte carlo"  [ c:\users\razvan.cacu\desktop\proiect cad\cad-pspicefiles\schematic1\monte carlo.sim ] 


 ****     Resistor MODEL PARAMETERS


******************************************************************************




               R_R34           R_R31           R_R32           R_R5            
           R    1               1               1               1            


               R_R6            R_R17           R_R8            R_R29           
           R    1               1               1               1            


               R_R30           R_R1            R_R15           R_R28           
           R    1               1               1               1            


               R_R3            R_R7            R_R16           R_R4            
           R    1               1               1               1            


               R_R33           
           R    1            


**** 05/19/23 13:49:02 ****** PSpice 17.2.0 (March 2016) ****** ID# 0 ********

 ** Profile: "SCHEMATIC1-monte carlo"  [ c:\users\razvan.cacu\desktop\proiect cad\cad-pspicefiles\schematic1\monte carlo.sim ] 


 ****     Capacitor MODEL PARAMETERS


******************************************************************************




               C_C2            C_C1            
           C    1               1            


**** 05/19/23 13:49:02 ****** PSpice 17.2.0 (March 2016) ****** ID# 0 ********

 ** Profile: "SCHEMATIC1-monte carlo"  [ c:\users\razvan.cacu\desktop\proiect cad\cad-pspicefiles\schematic1\monte carlo.sim ] 


 ****     INITIAL TRANSIENT SOLUTION       TEMPERATURE =   27.000 DEG C

                      MONTE CARLO NOMINAL

******************************************************************************



 NODE   VOLTAGE     NODE   VOLTAGE     NODE   VOLTAGE     NODE   VOLTAGE


(   V+)   15.0000  (   V-)  -15.0000  (DREPT)   -8.1990  (OUT_B)   13.2840      

(N101793) 10.22E-06                   (N101839)    2.5323                       

(N101971)   13.2830                   (N102091)    8.5394                       

(N102163)-503.2E-06                   (N102217)-237.1E-06                       

(N102343)   -7.4090                   (N102447)-436.2E-06                       

(N102589)   -8.8545                   (N102841)   13.1830                       

(N102971) 107.0E-06                   (N102981)    2.5477                       

(N102995)    3.2761                   (N103139)    2.5477                       

(N103225)   -8.2166                   (N103373)    1.7949                       

(OUT_INT)   -8.2173                   (OUT_TRI)    2.4921                       

(X_U6A.1)   -8.2667                   (X_U6A.8)   -8.2667                       

(X_U7B.1)   13.6430                   (X_U7B.8)   13.6430                       

(X_U8B.1)   -9.2089                   (X_U8B.8)   -9.2089                       

(X_U9B.1)   13.2880                   (X_U9B.8)   13.2880                       

(N1026190)-986.7E-06                  (X_U10B.1)   -8.2544                      

(X_U10B.8)   -8.2544                  (X_U11B.1)    2.8373                      

(X_U11B.8)    2.8373                  (X_U6A.10)    -.7485                      

(X_U6A.11)    -.7489                  (X_U6A.12)   -2.6081                      

(X_U6A.13)   -4.9687                  (X_U6A.14)  -11.4660                      

(X_U6A.18)   -8.2472                  (X_U6A.28) 339.3E-06                      

(X_U6A.38) 339.3E-06                  (X_U6A.48) 339.3E-06                      

(X_U6A.58) 339.3E-06                  (X_U6A.59)    0.0000                      

(X_U6A.60)  -15.0000                  (X_U6A.68) 339.3E-06                      

(X_U6A.70)   15.0000                  (X_U6A.78) 339.3E-06                      

(X_U6A.80)   13.1150                  (X_U6A.90)   13.1150                      

(X_U6A.99)   -8.2667                  (X_U7B.10)    -.7206                      

(X_U7B.11)    1.7706                  (X_U7B.12)   -1.3463                      

(X_U7B.13)   16.5320                  (X_U7B.14)   10.0350                      

(X_U7B.18)   13.5010                  (X_U7B.28)   -2.5253                      

(X_U7B.38)   -2.5253                  (X_U7B.48)   -2.5253                      

(X_U7B.58)   -2.5253                  (X_U7B.59)    0.0000                      

(X_U7B.60)  -15.0000                  (X_U7B.68)   -2.5253                      

(X_U7B.70)   15.0040                  (X_U7B.78)   -2.5253                      

(X_U7B.80)   14.3660                  (X_U7B.90)   11.8400                      

(X_U7B.99)   13.6430                  (X_U8B.10)    -.7489                      

(X_U8B.11)    -.7493                  (X_U8B.12)   -2.6086                      

(X_U8B.13)   -4.9504                  (X_U8B.14)  -11.4480                      

(X_U8B.18)   -8.8100                  (X_U8B.28) 376.4E-06                      

(X_U8B.38) 376.4E-06                  (X_U8B.48) 376.4E-06                      

(X_U8B.58) 376.4E-06                  (X_U8B.59)    0.0000                      

(X_U8B.60)  -15.0000                  (X_U8B.68) 376.4E-06                      

(X_U8B.70)   15.0000                  (X_U8B.78) 376.4E-06                      

(X_U8B.80)   13.1150                  (X_U8B.90)   13.1150                      

(X_U8B.99)   -9.2089                  (X_U9B.10)   12.4330                      

(X_U9B.11)   12.5330                  (X_U9B.12)   10.5000                      

(X_U9B.13)   16.4310                  (X_U9B.14)    9.9342                      

(X_U9B.18)   13.2470                  (X_U9B.28)    -.1010                      

(X_U9B.38)    -.1010                  (X_U9B.48)    -.1010                      

(X_U9B.58)    -.1010                  (X_U9B.59)    0.0000                      

(X_U9B.60)  -15.0000                  (X_U9B.68)    -.1010                      

(X_U9B.70)   15.0000                  (X_U9B.78)    -.1010                      

(X_U9B.80)   13.0400                  (X_U9B.90)   12.9390                      

(X_U9B.99)   13.2880                  (OUT_DREPT)   -8.0752                     

(X_U10B.10)   -8.9640                 (X_U10B.11)   -8.9645                     

(X_U10B.12)  -10.7470                 (X_U10B.13)   -4.9680                     

(X_U10B.14)  -11.4650                 (X_U10B.18)   -8.2395                     

(X_U10B.28) 453.9E-06                 (X_U10B.38) 453.9E-06                     

(X_U10B.48) 453.9E-06                 (X_U10B.58) 453.9E-06                     

(X_U10B.59)    0.0000                 (X_U10B.60)  -15.0000                     

(X_U10B.68) 453.9E-06                 (X_U10B.70)   15.0000                     

(X_U10B.78) 453.9E-06                 (X_U10B.80)   13.1930                     

(X_U10B.90)   13.1930                 (X_U10B.99)   -8.2544                     

(X_U11B.10)    -.7484                 (X_U11B.11)    -.7484                     

(X_U11B.12)   -2.6078                 (X_U11B.13)    5.7963                     

(X_U11B.14)    -.7009                 (X_U11B.18)    2.7229                     

(X_U11B.28)-66.99E-06                 (X_U11B.38)-66.99E-06                     

(X_U11B.48)-66.99E-06                 (X_U11B.58)-66.99E-06                     

(X_U11B.59)    0.0000                 (X_U11B.60)  -15.0000                     

(X_U11B.68)-66.99E-06                 (X_U11B.70)   15.0000                     

(X_U11B.78)-66.99E-06                 (X_U11B.80)   13.1150                     

(X_U11B.90)   13.1150                 (X_U11B.99)    2.8373                     

(X_U6A.131)   15.0000                 (X_U6A.141)  -15.0000                     

(X_U7B.131)   15.7540                 (X_U7B.141)  -15.0000                     

(X_U8B.131)   15.0000                 (X_U8B.141)  -15.0000                     

(X_U9B.131)   15.6670                 (X_U9B.141)  -15.0000                     

(X_U10B.131)   15.0000                (X_U10B.141)  -15.0000                    

(X_U11B.131)   15.0000                (X_U11B.141)  -15.0000                




    VOLTAGE SOURCE CURRENTS
    NAME         CURRENT

    V_V1        -1.769E-01
    V_V2         3.875E-01
    X_U9B.VC    -6.828E-04
    X_U9B.VE     2.493E-11
    X_U8B.VC     2.062E-11
    X_U8B.VE     3.552E-12
    X_U11B.VC    8.597E-12
    X_U11B.VE    1.430E-11
    X_U7B.VC    -1.151E-03
    X_U7B.VE     2.504E-11
    X_U6A.VC     1.997E-11
    X_U6A.VE     3.534E-12
    X_U10B.VC    1.226E-11
    X_U10B.VE    3.535E-12

    TOTAL POWER DISSIPATION   8.47E+00  WATTS


**** 05/19/23 13:49:02 ****** PSpice 17.2.0 (March 2016) ****** ID# 0 ********

 ** Profile: "SCHEMATIC1-monte carlo"  [ c:\users\razvan.cacu\desktop\proiect cad\cad-pspicefiles\schematic1\monte carlo.sim ] 


 ****     INITIAL TRANSIENT SOLUTION       TEMPERATURE =   27.000 DEG C

                      MONTE CARLO PASS 2

******************************************************************************



 NODE   VOLTAGE     NODE   VOLTAGE     NODE   VOLTAGE     NODE   VOLTAGE


(   V+)   15.0000  (   V-)  -15.0000  (DREPT)   -8.4362  (OUT_B)   13.2830      

(N101793) 10.31E-06                   (N101839)    2.5185                       

(N101971)   13.2830                   (N102091)    8.4380                       

(N102163)-516.0E-06                   (N102217)-237.3E-06                       

(N102343)   -7.6433                   (N102447)-420.8E-06                       

(N102589)   -9.0820                   (N102841)   13.1830                       

(N102971) 108.8E-06                   (N102981)    2.5190                       

(N102995)    3.2483                   (N103139)    2.5190                       

(N103225)   -8.5673                   (N103373)    1.7670                       

(OUT_INT)   -8.5679                   (OUT_TRI)    2.4645                       

(X_U6A.1)   -8.6190                   (X_U6A.8)   -8.6190                       

(X_U7B.1)   13.6470                   (X_U7B.8)   13.6470                       

(X_U8B.1)   -9.5223                   (X_U8B.8)   -9.5223                       

(X_U9B.1)   13.2870                   (X_U9B.8)   13.2870                       

(N1026190)-988.4E-06                  (X_U10B.1)   -8.6053                      

(X_U10B.8)   -8.6053                  (X_U11B.1)    2.7896                      

(X_U11B.8)    2.7896                  (X_U6A.10)    -.7485                      

(X_U6A.11)    -.7489                  (X_U6A.12)   -2.6081                      

(X_U6A.13)   -5.3193                  (X_U6A.14)  -11.8170                      

(X_U6A.18)   -8.5989                  (X_U6A.28) 352.2E-06                      

(X_U6A.38) 352.2E-06                  (X_U6A.48) 352.2E-06                      

(X_U6A.58) 352.2E-06                  (X_U6A.59)    0.0000                      

(X_U6A.60)  -15.0000                  (X_U6A.68) 352.2E-06                      

(X_U6A.70)   15.0000                  (X_U6A.78) 352.2E-06                      

(X_U6A.80)   13.1150                  (X_U6A.90)   13.1150                      

(X_U6A.99)   -8.6190                  (X_U7B.10)    -.7208                      

(X_U7B.11)    1.7568                  (X_U7B.12)   -1.3533                      

(X_U7B.13)   16.5320                  (X_U7B.14)   10.0350                      

(X_U7B.18)   13.5030                  (X_U7B.28)   -2.5117                      

(X_U7B.38)   -2.5117                  (X_U7B.48)   -2.5117                      

(X_U7B.58)   -2.5117                  (X_U7B.59)    0.0000                      

(X_U7B.60)  -15.0000                  (X_U7B.68)   -2.5117                      

(X_U7B.70)   15.0040                  (X_U7B.78)   -2.5117                      

(X_U7B.80)   14.3590                  (X_U7B.90)   11.8470                      

(X_U7B.99)   13.6470                  (X_U8B.10)    -.7489                      

(X_U8B.11)    -.7493                  (X_U8B.12)   -2.6086                      

(X_U8B.13)   -5.1876                  (X_U8B.14)  -11.6850                      

(X_U8B.18)   -9.0933                  (X_U8B.28) 393.5E-06                      

(X_U8B.38) 393.5E-06                  (X_U8B.48) 393.5E-06                      

(X_U8B.58) 393.5E-06                  (X_U8B.59)    0.0000                      

(X_U8B.60)  -15.0000                  (X_U8B.68) 393.5E-06                      

(X_U8B.70)   15.0000                  (X_U8B.78) 393.5E-06                      

(X_U8B.80)   13.1150                  (X_U8B.90)   13.1150                      

(X_U8B.99)   -9.5223                  (X_U9B.10)   12.4330                      

(X_U9B.11)   12.5330                  (X_U9B.12)   10.5000                      

(X_U9B.13)   16.4310                  (X_U9B.14)    9.9341                      

(X_U9B.18)   13.2460                  (X_U9B.28)    -.1008                      

(X_U9B.38)    -.1008                  (X_U9B.48)    -.1008                      

(X_U9B.58)    -.1008                  (X_U9B.59)    0.0000                      

(X_U9B.60)  -15.0000                  (X_U9B.68)    -.1008                      

(X_U9B.70)   15.0000                  (X_U9B.78)    -.1008                      

(X_U9B.80)   13.0400                  (X_U9B.90)   12.9390                      

(X_U9B.99)   13.2870                  (OUT_DREPT)   -8.3018                     

(X_U10B.10)   -9.3147                 (X_U10B.11)   -9.3151                     

(X_U10B.12)  -11.0940                 (X_U10B.13)   -6.0000                     

(X_U10B.14)  -11.8160                 (X_U10B.18)   -8.5903                     

(X_U10B.28) 471.6E-06                 (X_U10B.38) 471.6E-06                     

(X_U10B.48) 471.6E-06                 (X_U10B.58) 471.6E-06                     

(X_U10B.59)    0.0000                 (X_U10B.60)  -15.0000                     

(X_U10B.68) 471.6E-06                 (X_U10B.70)   15.0000                     

(X_U10B.78) 471.6E-06                 (X_U10B.80)   13.1960                     

(X_U10B.90)   13.1960                 (X_U10B.99)   -8.6053                     

(X_U11B.10)    -.7484                 (X_U11B.11)    -.7484                     

(X_U11B.12)   -2.6078                 (X_U11B.13)    5.7676                     

(X_U11B.14)    -.7296                 (X_U11B.18)    2.6827                     

(X_U11B.28)-65.24E-06                 (X_U11B.38)-65.24E-06                     

(X_U11B.48)-65.24E-06                 (X_U11B.58)-65.24E-06                     

(X_U11B.59)    0.0000                 (X_U11B.60)  -15.0000                     

(X_U11B.68)-65.24E-06                 (X_U11B.70)   15.0000                     

(X_U11B.78)-65.24E-06                 (X_U11B.80)   13.1150                     

(X_U11B.90)   13.1150                 (X_U11B.99)    2.7896                     

(X_U6A.131)   15.0000                 (X_U6A.141)  -15.0000                     

(X_U7B.131)   15.7540                 (X_U7B.141)  -15.0000                     

(X_U8B.131)   15.0000                 (X_U8B.141)  -15.0000                     

(X_U9B.131)   15.6670                 (X_U9B.141)  -15.0000                     

(X_U10B.131)   15.0000                (X_U10B.141)  -15.0000                    

(X_U11B.131)   15.0000                (X_U11B.141)  -15.0000                




    VOLTAGE SOURCE CURRENTS
    NAME         CURRENT

    V_V1        -1.767E-01
    V_V2         3.941E-01
    X_U9B.VC    -6.827E-04
    X_U9B.VE     2.493E-11
    X_U8B.VC     2.019E-11
    X_U8B.VE     3.315E-12
    X_U11B.VC    9.233E-12
    X_U11B.VE    1.427E-11
    X_U7B.VC    -1.149E-03
    X_U7B.VE     2.503E-11
    X_U6A.VC     2.032E-11
    X_U6A.VE     3.184E-12
    X_U10B.VC    2.065E-11
    X_U10B.VE    3.184E-12

    TOTAL POWER DISSIPATION   8.57E+00  WATTS


**** 05/19/23 13:49:02 ****** PSpice 17.2.0 (March 2016) ****** ID# 0 ********

 ** Profile: "SCHEMATIC1-monte carlo"  [ c:\users\razvan.cacu\desktop\proiect cad\cad-pspicefiles\schematic1\monte carlo.sim ] 


 ****     INITIAL TRANSIENT SOLUTION       TEMPERATURE =   27.000 DEG C

                      MONTE CARLO PASS 3

******************************************************************************



 NODE   VOLTAGE     NODE   VOLTAGE     NODE   VOLTAGE     NODE   VOLTAGE


(   V+)   15.0000  (   V-)  -15.0000  (DREPT)   -8.2939  (OUT_B)   13.2870      

(N101793) 10.25E-06                   (N101839)    2.7912                       

(N101971)   13.2870                   (N102091)    8.4500                       

(N102163)-515.3E-06                   (N102217)-192.4E-06                       

(N102343)   -7.5021                   (N102447)-470.5E-06                       

(N102589)   -8.9431                   (N102841)   13.1840                       

(N102971) 102.8E-06                   (N102981)    2.6982                       

(N102995)    3.4276                   (N103139)    2.6982                       

(N103225)   -8.5478                   (N103373)    1.9476                       

(OUT_INT)   -8.5484                   (OUT_TRI)    2.6419                       

(X_U6A.1)   -8.5984                   (X_U6A.8)   -8.5984                       

(X_U7B.1)   13.6500                   (X_U7B.8)   13.6500                       

(X_U8B.1)   -9.3520                   (X_U8B.8)   -9.3520                       

(X_U9B.1)   13.2900                   (X_U9B.8)   13.2900                       

(N1026190)    -.0010                  (X_U10B.1)   -8.5862                      

(X_U10B.8)   -8.5862                  (X_U11B.1)    2.9542                      

(X_U11B.8)    2.9542                  (X_U6A.10)    -.7485                      

(X_U6A.11)    -.7489                  (X_U6A.12)   -2.6081                      

(X_U6A.13)   -5.2998                  (X_U6A.14)  -11.7970                      

(X_U6A.18)   -8.5786                  (X_U6A.28) 351.5E-06                      

(X_U6A.38) 351.5E-06                  (X_U6A.48) 351.5E-06                      

(X_U6A.58) 351.5E-06                  (X_U6A.59)    0.0000                      

(X_U6A.60)  -15.0000                  (X_U6A.68) 351.5E-06                      

(X_U6A.70)   15.0000                  (X_U6A.78) 351.5E-06                      

(X_U6A.80)   13.1150                  (X_U6A.90)   13.1150                      

(X_U6A.99)   -8.5984                  (X_U7B.10)    -.7148                      

(X_U7B.11)    2.0284                  (X_U7B.12)   -1.2157                      

(X_U7B.13)   16.5360                  (X_U7B.14)   10.0390                      

(X_U7B.18)   13.5070                  (X_U7B.28)   -2.7809                      

(X_U7B.38)   -2.7809                  (X_U7B.48)   -2.7809                      

(X_U7B.58)   -2.7809                  (X_U7B.59)    0.0000                      

(X_U7B.60)  -15.0000                  (X_U7B.68)   -2.7808                      

(X_U7B.70)   15.0040                  (X_U7B.78)   -2.7808                      

(X_U7B.80)   14.4920                  (X_U7B.90)   11.7110                      

(X_U7B.99)   13.6500                  (X_U8B.10)    -.7490                      

(X_U8B.11)    -.7494                  (X_U8B.12)   -2.6086                      

(X_U8B.13)   -5.0453                  (X_U8B.14)  -11.5430                      

(X_U8B.18)   -8.9340                  (X_U8B.28) 384.4E-06                      

(X_U8B.38) 384.4E-06                  (X_U8B.48) 384.4E-06                      

(X_U8B.58) 384.4E-06                  (X_U8B.59)    0.0000                      

(X_U8B.60)  -15.0000                  (X_U8B.68) 384.4E-06                      

(X_U8B.70)   15.0000                  (X_U8B.78) 384.4E-06                      

(X_U8B.80)   13.1150                  (X_U8B.90)   13.1150                      

(X_U8B.99)   -9.3520                  (X_U9B.10)   12.4340                      

(X_U9B.11)   12.5370                  (X_U9B.12)   10.5020                      

(X_U9B.13)   16.4320                  (X_U9B.14)    9.9350                      

(X_U9B.18)   13.2480                  (X_U9B.28)    -.1040                      

(X_U9B.38)    -.1040                  (X_U9B.48)    -.1040                      

(X_U9B.58)    -.1040                  (X_U9B.59)    0.0000                      

(X_U9B.60)  -15.0000                  (X_U9B.68)    -.1040                      

(X_U9B.70)   15.0000                  (X_U9B.78)    -.1040                      

(X_U9B.80)   13.0420                  (X_U9B.90)   12.9380                      

(X_U9B.99)   13.2900                  (OUT_DREPT)   -8.1637                     

(X_U10B.10)   -9.2952                 (X_U10B.11)   -9.2956                     

(X_U10B.12)  -11.0750                 (X_U10B.13)   -6.0000                     

(X_U10B.14)  -11.7960                 (X_U10B.18)   -8.5710                     

(X_U10B.28) 470.6E-06                 (X_U10B.38) 470.6E-06                     

(X_U10B.48) 470.6E-06                 (X_U10B.58) 470.6E-06                     

(X_U10B.59)    0.0000                 (X_U10B.60)  -15.0000                     

(X_U10B.68) 470.6E-06                 (X_U10B.70)   15.0000                     

(X_U10B.78) 470.6E-06                 (X_U10B.80)   13.1960                     

(X_U10B.90)   13.1960                 (X_U10B.99)   -8.5862                     

(X_U11B.10)    -.7484                 (X_U11B.11)    -.7484                     

(X_U11B.12)   -2.6078                 (X_U11B.13)    5.9468                     

(X_U11B.14)    -.5504                 (X_U11B.18)    2.8531                     

(X_U11B.28)-71.26E-06                 (X_U11B.38)-71.26E-06                     

(X_U11B.48)-71.26E-06                 (X_U11B.58)-71.26E-06                     

(X_U11B.59)    0.0000                 (X_U11B.60)  -15.0000                     

(X_U11B.68)-71.26E-06                 (X_U11B.70)   15.0000                     

(X_U11B.78)-71.26E-06                 (X_U11B.80)   13.1150                     

(X_U11B.90)   13.1150                 (X_U11B.99)    2.9542                     

(X_U6A.131)   15.0000                 (X_U6A.141)  -15.0000                     

(X_U7B.131)   15.7570                 (X_U7B.141)  -15.0000                     

(X_U8B.131)   15.0000                 (X_U8B.141)  -15.0000                     

(X_U9B.131)   15.6680                 (X_U9B.141)  -15.0000                     

(X_U10B.131)   15.0000                (X_U10B.141)  -15.0000                    

(X_U11B.131)   15.0000                (X_U11B.141)  -15.0000                




    VOLTAGE SOURCE CURRENTS
    NAME         CURRENT

    V_V1        -1.807E-01
    V_V2         3.850E-01
    X_U9B.VC    -6.840E-04
    X_U9B.VE     2.494E-11
    X_U8B.VC     2.005E-11
    X_U8B.VE     3.458E-12
    X_U11B.VC    9.053E-12
    X_U11B.VE    1.445E-11
    X_U7B.VC    -1.194E-03
    X_U7B.VE     2.504E-11
    X_U6A.VC     2.030E-11
    X_U6A.VE     3.203E-12
    X_U10B.VC    2.313E-11
    X_U10B.VE    3.204E-12

    TOTAL POWER DISSIPATION   8.49E+00  WATTS


**** 05/19/23 13:49:02 ****** PSpice 17.2.0 (March 2016) ****** ID# 0 ********

 ** Profile: "SCHEMATIC1-monte carlo"  [ c:\users\razvan.cacu\desktop\proiect cad\cad-pspicefiles\schematic1\monte carlo.sim ] 


 ****     INITIAL TRANSIENT SOLUTION       TEMPERATURE =   27.000 DEG C

                      MONTE CARLO PASS 4

******************************************************************************



 NODE   VOLTAGE     NODE   VOLTAGE     NODE   VOLTAGE     NODE   VOLTAGE


(   V+)   15.0000  (   V-)  -15.0000  (DREPT)   -7.7605  (OUT_B)   13.2840      

(N101793) 10.18E-06                   (N101839)    2.5685                       

(N101971)   13.2840                   (N102091)    8.5597                       

(N102163)-502.2E-06                   (N102217)-241.6E-06                       

(N102343)   -6.9698                   (N102447)-437.7E-06                       

(N102589)   -8.4360                   (N102841)   13.1830                       

(N102971) 106.1E-06                   (N102981)    2.6023                       

(N102995)    3.3305                   (N103139)    2.6023                       

(N103225)   -8.1896                   (N103373)    1.8520                       

(OUT_INT)   -8.1902                   (OUT_TRI)    2.5469                       

(X_U6A.1)   -8.2378                   (X_U6A.8)   -8.2378                       

(X_U7B.1)   13.6410                   (X_U7B.8)   13.6410                       

(X_U8B.1)   -8.7452                   (X_U8B.8)   -8.7452                       

(X_U9B.1)   13.2870                   (X_U9B.8)   13.2870                       

(N1026190)-970.4E-06                  (X_U10B.1)   -8.2279                      

(X_U10B.8)   -8.2279                  (X_U11B.1)    2.8635                      

(X_U11B.8)    2.8635                  (X_U6A.10)    -.7485                      

(X_U6A.11)    -.7489                  (X_U6A.12)   -2.6081                      

(X_U6A.13)   -4.9417                  (X_U6A.14)  -11.4390                      

(X_U6A.18)   -8.2190                  (X_U6A.28) 338.3E-06                      

(X_U6A.38) 338.3E-06                  (X_U6A.48) 338.3E-06                      

(X_U6A.58) 338.3E-06                  (X_U6A.59)    0.0000                      

(X_U6A.60)  -15.0000                  (X_U6A.68) 338.3E-06                      

(X_U6A.70)   15.0000                  (X_U6A.78) 338.3E-06                      

(X_U6A.80)   13.1150                  (X_U6A.90)   13.1150                      

(X_U6A.99)   -8.2378                  (X_U7B.10)    -.7198                      

(X_U7B.11)    1.8066                  (X_U7B.12)   -1.3281                      

(X_U7B.13)   16.5330                  (X_U7B.14)   10.0350                      

(X_U7B.18)   13.5000                  (X_U7B.28)   -2.5611                      

(X_U7B.38)   -2.5611                  (X_U7B.48)   -2.5611                      

(X_U7B.58)   -2.5611                  (X_U7B.59)    0.0000                      

(X_U7B.60)  -15.0000                  (X_U7B.68)   -2.5611                      

(X_U7B.70)   15.0040                  (X_U7B.78)   -2.5611                      

(X_U7B.80)   14.3830                  (X_U7B.90)   11.8220                      

(X_U7B.99)   13.6410                  (X_U8B.10)    -.7489                      

(X_U8B.11)    -.7493                  (X_U8B.12)   -2.6086                      

(X_U8B.13)   -4.5118                  (X_U8B.14)  -11.0090                      

(X_U8B.18)   -8.3562                  (X_U8B.28) 358.6E-06                      

(X_U8B.38) 358.6E-06                  (X_U8B.48) 358.6E-06                      

(X_U8B.58) 358.6E-06                  (X_U8B.59)    0.0000                      

(X_U8B.60)  -15.0000                  (X_U8B.68) 358.6E-06                      

(X_U8B.70)   15.0000                  (X_U8B.78) 358.6E-06                      

(X_U8B.80)   13.1150                  (X_U8B.90)   13.1150                      

(X_U8B.99)   -8.7452                  (X_U9B.10)   12.4330                      

(X_U9B.11)   12.5330                  (X_U9B.12)   10.5000                      

(X_U9B.13)   16.4310                  (X_U9B.14)    9.9343                      

(X_U9B.18)   13.2460                  (X_U9B.28)    -.1014                      

(X_U9B.38)    -.1014                  (X_U9B.48)    -.1014                      

(X_U9B.58)    -.1014                  (X_U9B.59)    0.0000                      

(X_U9B.60)  -15.0000                  (X_U9B.68)    -.1014                      

(X_U9B.70)   15.0000                  (X_U9B.78)    -.1014                      

(X_U9B.80)   13.0410                  (X_U9B.90)   12.9390                      

(X_U9B.99)   13.2870                  (OUT_DREPT)   -7.6581                     

(X_U10B.10)   -8.9370                 (X_U10B.11)   -8.9375                     

(X_U10B.12)  -10.7200                 (X_U10B.13)   -4.0000                     

(X_U10B.14)  -11.4380                 (X_U10B.18)   -8.2128                     

(X_U10B.28) 452.5E-06                 (X_U10B.38) 452.5E-06                     

(X_U10B.48) 452.5E-06                 (X_U10B.58) 452.5E-06                     

(X_U10B.59)    0.0000                 (X_U10B.60)  -15.0000                     

(X_U10B.68) 452.5E-06                 (X_U10B.70)   15.0000                     

(X_U10B.78) 452.5E-06                 (X_U10B.80)   13.1920                     

(X_U10B.90)   13.1930                 (X_U10B.99)   -8.2279                     

(X_U11B.10)    -.7484                 (X_U11B.11)    -.7484                     

(X_U11B.12)   -2.6078                 (X_U11B.13)    5.8509                     

(X_U11B.14)    -.6463                 (X_U11B.18)    2.7603                     

(X_U11B.28)-67.95E-06                 (X_U11B.38)-67.95E-06                     

(X_U11B.48)-67.95E-06                 (X_U11B.58)-67.95E-06                     

(X_U11B.59)    0.0000                 (X_U11B.60)  -15.0000                     

(X_U11B.68)-67.95E-06                 (X_U11B.70)   15.0000                     

(X_U11B.78)-67.95E-06                 (X_U11B.80)   13.1150                     

(X_U11B.90)   13.1150                 (X_U11B.99)    2.8635                     

(X_U6A.131)   15.0000                 (X_U6A.141)  -15.0000                     

(X_U7B.131)   15.7550                 (X_U7B.141)  -15.0000                     

(X_U8B.131)   15.0000                 (X_U8B.141)  -15.0000                     

(X_U9B.131)   15.6670                 (X_U9B.141)  -15.0000                     

(X_U10B.131)   15.0000                (X_U10B.141)  -15.0000                    

(X_U11B.131)   15.0000                (X_U11B.141)  -15.0000                




    VOLTAGE SOURCE CURRENTS
    NAME         CURRENT

    V_V1        -1.823E-01
    V_V2         3.753E-01
    X_U9B.VC    -6.830E-04
    X_U9B.VE     2.493E-11
    X_U8B.VC     1.951E-11
    X_U8B.VE     3.991E-12
    X_U11B.VC    9.149E-12
    X_U11B.VE    1.435E-11
    X_U7B.VC    -1.157E-03
    X_U7B.VE     2.504E-11
    X_U6A.VC     1.994E-11
    X_U6A.VE     3.561E-12
    X_U10B.VC    2.025E-11
    X_U10B.VE    3.562E-12

    TOTAL POWER DISSIPATION   8.37E+00  WATTS


**** 05/19/23 13:49:02 ****** PSpice 17.2.0 (March 2016) ****** ID# 0 ********

 ** Profile: "SCHEMATIC1-monte carlo"  [ c:\users\razvan.cacu\desktop\proiect cad\cad-pspicefiles\schematic1\monte carlo.sim ] 


 ****     INITIAL TRANSIENT SOLUTION       TEMPERATURE =   27.000 DEG C

                      MONTE CARLO PASS 5

******************************************************************************



 NODE   VOLTAGE     NODE   VOLTAGE     NODE   VOLTAGE     NODE   VOLTAGE


(   V+)   15.0000  (   V-)  -15.0000  (DREPT)   -8.5138  (OUT_B)   13.2800      

(N101793) 10.21E-06                   (N101839)    2.3387                       

(N101971)   13.2800                   (N102091)    8.5616                       

(N102163)-498.5E-06                   (N102217)-285.5E-06                       

(N102343)   -7.7245                   (N102447)-393.2E-06                       

(N102589)   -9.1486                   (N102841)   13.1820                       

(N102971) 110.9E-06                   (N102981)    2.4419                       

(N102995)    3.1733                   (N103139)    2.4419                       

(N103225)   -8.0895                   (N103373)    1.6868                       

(OUT_INT)   -8.0902                   (OUT_TRI)    2.3888                       

(X_U6A.1)   -8.1384                   (X_U6A.8)   -8.1384                       

(X_U7B.1)   13.6370                   (X_U7B.8)   13.6370                       

(X_U8B.1)   -9.5336                   (X_U8B.8)   -9.5336                       

(X_U9B.1)   13.2870                   (X_U9B.8)   13.2870                       

(N1026190)-956.0E-06                  (X_U10B.1)   -8.1264                      

(X_U10B.8)   -8.1264                  (X_U11B.1)    2.7323                      

(X_U11B.8)    2.7323                  (X_U6A.10)    -.7485                      

(X_U6A.11)    -.7488                  (X_U6A.12)   -2.6081                      

(X_U6A.13)   -4.8416                  (X_U6A.14)  -11.3390                      

(X_U6A.18)   -8.1194                  (X_U6A.28) 334.6E-06                      

(X_U6A.38) 334.6E-06                  (X_U6A.48) 334.6E-06                      

(X_U6A.58) 334.6E-06                  (X_U6A.59)    0.0000                      

(X_U6A.60)  -15.0000                  (X_U6A.68) 334.6E-06                      

(X_U6A.70)   15.0000                  (X_U6A.78) 334.6E-06                      

(X_U6A.80)   13.1150                  (X_U6A.90)   13.1150                      

(X_U6A.99)   -8.1384                  (X_U7B.10)    -.7242                      

(X_U7B.11)    1.5778                  (X_U7B.12)   -1.4436                      

(X_U7B.13)   16.5290                  (X_U7B.14)   10.0320                      

(X_U7B.18)   13.4960                  (X_U7B.28)   -2.3336                      

(X_U7B.38)   -2.3336                  (X_U7B.48)   -2.3336                      

(X_U7B.58)   -2.3336                  (X_U7B.59)    0.0000                      

(X_U7B.60)  -15.0000                  (X_U7B.68)   -2.3336                      

(X_U7B.70)   15.0040                  (X_U7B.78)   -2.3336                      

(X_U7B.80)   14.2710                  (X_U7B.90)   11.9370                      

(X_U7B.99)   13.6370                  (X_U8B.10)    -.7489                      

(X_U8B.11)    -.7493                  (X_U8B.12)   -2.6085                      

(X_U8B.13)   -5.2652                  (X_U8B.14)  -11.7620                      

(X_U8B.18)   -9.1308                  (X_U8B.28) 388.7E-06                      

(X_U8B.38) 388.7E-06                  (X_U8B.48) 388.7E-06                      

(X_U8B.58) 388.7E-06                  (X_U8B.59)    0.0000                      

(X_U8B.60)  -15.0000                  (X_U8B.68) 388.7E-06                      

(X_U8B.70)   15.0000                  (X_U8B.78) 388.7E-06                      

(X_U8B.80)   13.1150                  (X_U8B.90)   13.1150                      

(X_U8B.99)   -9.5336                  (X_U9B.10)   12.4330                      

(X_U9B.11)   12.5300                  (X_U9B.12)   10.4980                      

(X_U9B.13)   16.4310                  (X_U9B.14)    9.9335                      

(X_U9B.18)   13.2450                  (X_U9B.28)    -.0986                      

(X_U9B.38)    -.0986                  (X_U9B.48)    -.0986                      

(X_U9B.58)    -.0986                  (X_U9B.59)    0.0000                      

(X_U9B.60)  -15.0000                  (X_U9B.68)    -.0986                      

(X_U9B.70)   15.0000                  (X_U9B.78)    -.0986                      

(X_U9B.80)   13.0390                  (X_U9B.90)   12.9410                      

(X_U9B.99)   13.2870                  (OUT_DREPT)   -8.3682                     

(X_U10B.10)   -8.8370                 (X_U10B.11)   -8.8374                     

(X_U10B.12)  -10.6210                 (X_U10B.13)   -5.0000                     

(X_U10B.14)  -11.3380                 (X_U10B.18)   -8.1118                     

(X_U10B.28) 447.4E-06                 (X_U10B.38) 447.4E-06                     

(X_U10B.48) 447.4E-06                 (X_U10B.58) 447.4E-06                     

(X_U10B.59)    0.0000                 (X_U10B.60)  -15.0000                     

(X_U10B.68) 447.4E-06                 (X_U10B.70)   15.0000                     

(X_U10B.78) 447.4E-06                 (X_U10B.80)   13.1910                     

(X_U10B.90)   13.1920                 (X_U10B.99)   -8.1264                     

(X_U11B.10)    -.7484                 (X_U11B.11)    -.7484                     

(X_U11B.12)   -2.6078                 (X_U11B.13)    5.6906                     

(X_U11B.14)    -.8067                 (X_U11B.18)    2.6176                     

(X_U11B.28)-63.15E-06                 (X_U11B.38)-63.15E-06                     

(X_U11B.48)-63.15E-06                 (X_U11B.58)-63.15E-06                     

(X_U11B.59)    0.0000                 (X_U11B.60)  -15.0000                     

(X_U11B.68)-63.15E-06                 (X_U11B.70)   15.0000                     

(X_U11B.78)-63.15E-06                 (X_U11B.80)   13.1150                     

(X_U11B.90)   13.1150                 (X_U11B.99)    2.7323                     

(X_U6A.131)   15.0000                 (X_U6A.141)  -15.0000                     

(X_U7B.131)   15.7520                 (X_U7B.141)  -15.0000                     

(X_U8B.131)   15.0000                 (X_U8B.141)  -15.0000                     

(X_U9B.131)   15.6660                 (X_U9B.141)  -15.0000                     

(X_U10B.131)   15.0000                (X_U10B.141)  -15.0000                    

(X_U11B.131)   15.0000                (X_U11B.141)  -15.0000                




    VOLTAGE SOURCE CURRENTS
    NAME         CURRENT

    V_V1        -1.755E-01
    V_V2         4.008E-01
    X_U9B.VC    -6.818E-04
    X_U9B.VE     2.493E-11
    X_U8B.VC     2.027E-11
    X_U8B.VE     3.238E-12
    X_U11B.VC    9.310E-12
    X_U11B.VE    1.419E-11
    X_U7B.VC    -1.118E-03
    X_U7B.VE     2.503E-11
    X_U6A.VC     1.984E-11
    X_U6A.VE     3.661E-12
    X_U10B.VC    2.110E-11
    X_U10B.VE    3.662E-12

    TOTAL POWER DISSIPATION   8.65E+00  WATTS


**** 05/19/23 13:49:02 ****** PSpice 17.2.0 (March 2016) ****** ID# 0 ********

 ** Profile: "SCHEMATIC1-monte carlo"  [ c:\users\razvan.cacu\desktop\proiect cad\cad-pspicefiles\schematic1\monte carlo.sim ] 


 ****     INITIAL TRANSIENT SOLUTION       TEMPERATURE =   27.000 DEG C

                      MONTE CARLO PASS 6

******************************************************************************



 NODE   VOLTAGE     NODE   VOLTAGE     NODE   VOLTAGE     NODE   VOLTAGE


(   V+)   15.0000  (   V-)  -15.0000  (DREPT)   -8.0983  (OUT_B)   13.2710      

(N101793) 10.15E-06                   (N101839)    1.8211                       

(N101971)   13.2710                   (N102091)    8.5408                       

(N102163)-519.2E-06                   (N102217)-362.9E-06                       

(N102343)   -7.3083                   (N102447)-483.6E-06                       

(N102589)   -8.7577                   (N102841)   13.1800                       

(N102971) 97.51E-06                   (N102981)    2.8205                       

(N102995)    3.5500                   (N103139)    2.8205                       

(N103225)   -8.6503                   (N103373)    2.0681                       

(OUT_INT)   -8.6510                   (OUT_TRI)    2.7623                       

(X_U6A.1)   -8.7016                   (X_U6A.8)   -8.7016                       

(X_U7B.1)   13.6240                   (X_U7B.8)   13.6240                       

(X_U8B.1)   -9.0991                   (X_U8B.8)   -9.0991                       

(X_U9B.1)   13.2840                   (X_U9B.8)   13.2840                       

(N1026190)    -.0010                  (X_U10B.1)   -8.6910                      

(X_U10B.8)   -8.6910                  (X_U11B.1)    3.0978                      

(X_U11B.8)    3.0978                  (X_U6A.10)    -.7485                      

(X_U6A.11)    -.7489                  (X_U6A.12)   -2.6081                      

(X_U6A.13)   -5.4024                  (X_U6A.14)  -11.9000                      

(X_U6A.18)   -8.6816                  (X_U6A.28) 355.3E-06                      

(X_U6A.38) 355.3E-06                  (X_U6A.48) 355.3E-06                      

(X_U6A.58) 355.3E-06                  (X_U6A.59)    0.0000                      

(X_U6A.60)  -15.0000                  (X_U6A.68) 355.3E-06                      

(X_U6A.70)   15.0000                  (X_U6A.78) 355.3E-06                      

(X_U6A.80)   13.1150                  (X_U6A.90)   13.1150                      

(X_U6A.99)   -8.7016                  (X_U7B.10)    -.7321                      

(X_U7B.11)    1.0625                  (X_U7B.12)   -1.7027                      

(X_U7B.13)   16.5200                  (X_U7B.14)   10.0220                      

(X_U7B.18)   13.4850                  (X_U7B.28)   -1.8192                      

(X_U7B.38)   -1.8192                  (X_U7B.48)   -1.8192                      

(X_U7B.58)   -1.8192                  (X_U7B.59)    0.0000                      

(X_U7B.60)  -15.0000                  (X_U7B.68)   -1.8192                      

(X_U7B.70)   15.0030                  (X_U7B.78)   -1.8192                      

(X_U7B.80)   14.0160                  (X_U7B.90)   12.1970                      

(X_U7B.99)   13.6240                  (X_U8B.10)    -.7490                      

(X_U8B.11)    -.7494                  (X_U8B.12)   -2.6086                      

(X_U8B.13)   -4.8496                  (X_U8B.14)  -11.3470                      

(X_U8B.18)   -8.7038                  (X_U8B.28) 372.0E-06                      

(X_U8B.38) 372.0E-06                  (X_U8B.48) 372.0E-06                      

(X_U8B.58) 372.0E-06                  (X_U8B.59)    0.0000                      

(X_U8B.60)  -15.0000                  (X_U8B.68) 372.0E-06                      

(X_U8B.70)   15.0000                  (X_U8B.78) 372.0E-06                      

(X_U8B.80)   13.1150                  (X_U8B.90)   13.1150                      

(X_U8B.99)   -9.0991                  (X_U9B.10)   12.4300                      

(X_U9B.11)   12.5200                  (X_U9B.12)   10.4930                      

(X_U9B.13)   16.4290                  (X_U9B.14)    9.9314                      

(X_U9B.18)   13.2430                  (X_U9B.28)    -.0913                      

(X_U9B.38)    -.0913                  (X_U9B.48)    -.0913                      

(X_U9B.58)    -.0913                  (X_U9B.59)    0.0000                      

(X_U9B.60)  -15.0000                  (X_U9B.68)    -.0913                      

(X_U9B.70)   15.0000                  (X_U9B.78)    -.0913                      

(X_U9B.80)   13.0360                  (X_U9B.90)   12.9440                      

(X_U9B.99)   13.2840                  (OUT_DREPT)   -7.9792                     

(X_U10B.10)   -9.3977                 (X_U10B.11)   -9.3982                     

(X_U10B.12)  -11.1770                 (X_U10B.13)   -6.0000                     

(X_U10B.14)  -11.8990                 (X_U10B.18)   -8.6749                     

(X_U10B.28) 475.9E-06                 (X_U10B.38) 475.9E-06                     

(X_U10B.48) 475.9E-06                 (X_U10B.58) 475.9E-06                     

(X_U10B.59)    0.0000                 (X_U10B.60)  -15.0000                     

(X_U10B.68) 475.9E-06                 (X_U10B.70)   15.0000                     

(X_U10B.78) 475.9E-06                 (X_U10B.80)   13.1970                     

(X_U10B.90)   13.1970                 (X_U10B.99)   -8.6910                     

(X_U11B.10)    -.7484                 (X_U11B.11)    -.7484                     

(X_U11B.12)   -2.6078                 (X_U11B.13)    6.0691                     

(X_U11B.14)    -.4281                 (X_U11B.18)    2.9882                     

(X_U11B.28)-76.52E-06                 (X_U11B.38)-76.52E-06                     

(X_U11B.48)-76.52E-06                 (X_U11B.58)-76.52E-06                     

(X_U11B.59)    0.0000                 (X_U11B.60)  -15.0000                     

(X_U11B.68)-76.52E-06                 (X_U11B.70)   15.0000                     

(X_U11B.78)-76.52E-06                 (X_U11B.80)   13.1150                     

(X_U11B.90)   13.1150                 (X_U11B.99)    3.0978                     

(X_U6A.131)   15.0000                 (X_U6A.141)  -15.0000                     

(X_U7B.131)   15.7450                 (X_U7B.141)  -15.0000                     

(X_U8B.131)   15.0000                 (X_U8B.141)  -15.0000                     

(X_U9B.131)   15.6640                 (X_U9B.141)  -15.0000                     

(X_U10B.131)   15.0000                (X_U10B.141)  -15.0000                    

(X_U11B.131)   15.0000                (X_U11B.141)  -15.0000                




    VOLTAGE SOURCE CURRENTS
    NAME         CURRENT

    V_V1        -1.860E-01
    V_V2         3.790E-01
    X_U9B.VC    -6.786E-04
    X_U9B.VE     2.493E-11
    X_U8B.VC     1.985E-11
    X_U8B.VE     3.653E-12
    X_U11B.VC    8.931E-12
    X_U11B.VE    1.457E-11
    X_U7B.VC    -1.030E-03
    X_U7B.VE     2.502E-11
    X_U6A.VC     2.040E-11
    X_U6A.VE     3.101E-12
    X_U10B.VC    2.001E-11
    X_U10B.VE    3.101E-12

    TOTAL POWER DISSIPATION   8.48E+00  WATTS


**** 05/19/23 13:49:02 ****** PSpice 17.2.0 (March 2016) ****** ID# 0 ********

 ** Profile: "SCHEMATIC1-monte carlo"  [ c:\users\razvan.cacu\desktop\proiect cad\cad-pspicefiles\schematic1\monte carlo.sim ] 


 ****     INITIAL TRANSIENT SOLUTION       TEMPERATURE =   27.000 DEG C

                      MONTE CARLO PASS 7

******************************************************************************



 NODE   VOLTAGE     NODE   VOLTAGE     NODE   VOLTAGE     NODE   VOLTAGE


(   V+)   15.0000  (   V-)  -15.0000  (DREPT)   -8.3604  (OUT_B)   13.2880      

(N101793) 10.23E-06                   (N101839)    2.8059                       

(N101971)   13.2880                   (N102091)    8.4165                       

(N102163)-501.3E-06                   (N102217)-195.0E-06                       

(N102343)   -7.5718                   (N102447)-444.8E-06                       

(N102589)   -9.0122                   (N102841)   13.1840                       

(N102971) 110.2E-06                   (N102981)    2.4865                       

(N102995)    3.2181                   (N103139)    2.4865                       

(N103225)   -8.1648                   (N103373)    1.7332                       

(OUT_INT)   -8.1654                   (OUT_TRI)    2.4337                       

(X_U6A.1)   -8.2137                   (X_U6A.8)   -8.2137                       

(X_U7B.1)   13.6490                   (X_U7B.8)   13.6490                       

(X_U8B.1)   -9.3438                   (X_U8B.8)   -9.3438                       

(X_U9B.1)   13.2880                   (X_U9B.8)   13.2880                       

(N1026190)-999.4E-06                  (X_U10B.1)   -8.2030                      

(X_U10B.8)   -8.2030                  (X_U11B.1)    2.7522                      

(X_U11B.8)    2.7522                  (X_U6A.10)    -.7485                      

(X_U6A.11)    -.7489                  (X_U6A.12)   -2.6081                      

(X_U6A.13)   -4.9168                  (X_U6A.14)  -11.4140                      

(X_U6A.18)   -8.1946                  (X_U6A.28) 337.4E-06                      

(X_U6A.38) 337.4E-06                  (X_U6A.48) 337.4E-06                      

(X_U6A.58) 337.4E-06                  (X_U6A.59)    0.0000                      

(X_U6A.60)  -15.0000                  (X_U6A.68) 337.4E-06                      

(X_U6A.70)   15.0000                  (X_U6A.78) 337.4E-06                      

(X_U6A.80)   13.1150                  (X_U6A.90)   13.1150                      

(X_U6A.99)   -8.2137                  (X_U7B.10)    -.7144                      

(X_U7B.11)    2.0431                  (X_U7B.12)   -1.2083                      

(X_U7B.13)   16.5360                  (X_U7B.14)   10.0390                      

(X_U7B.18)   13.5060                  (X_U7B.28)   -2.7954                      

(X_U7B.38)   -2.7954                  (X_U7B.48)   -2.7954                      

(X_U7B.58)   -2.7954                  (X_U7B.59)    0.0000                      

(X_U7B.60)  -15.0000                  (X_U7B.68)   -2.7954                      

(X_U7B.70)   15.0040                  (X_U7B.78)   -2.7954                      

(X_U7B.80)   14.4990                  (X_U7B.90)   11.7040                      

(X_U7B.99)   13.6490                  (X_U8B.10)    -.7489                      

(X_U8B.11)    -.7493                  (X_U8B.12)   -2.6086                      

(X_U8B.13)   -5.1118                  (X_U8B.14)  -11.6090                      

(X_U8B.18)   -8.9554                  (X_U8B.28) 380.5E-06                      

(X_U8B.38) 380.5E-06                  (X_U8B.48) 380.5E-06                      

(X_U8B.58) 380.5E-06                  (X_U8B.59)    0.0000                      

(X_U8B.60)  -15.0000                  (X_U8B.68) 380.5E-06                      

(X_U8B.70)   15.0000                  (X_U8B.78) 380.5E-06                      

(X_U8B.80)   13.1150                  (X_U8B.90)   13.1150                      

(X_U8B.99)   -9.3438                  (X_U9B.10)   12.4340                      

(X_U9B.11)   12.5370                  (X_U9B.12)   10.5030                      

(X_U9B.13)   16.4320                  (X_U9B.14)    9.9350                      

(X_U9B.18)   13.2470                  (X_U9B.28)    -.1042                      

(X_U9B.38)    -.1042                  (X_U9B.48)    -.1042                      

(X_U9B.58)    -.1042                  (X_U9B.59)    0.0000                      

(X_U9B.60)  -15.0000                  (X_U9B.68)    -.1042                      

(X_U9B.70)   15.0000                  (X_U9B.78)    -.1042                      

(X_U9B.80)   13.0420                  (X_U9B.90)   12.9380                      

(X_U9B.99)   13.2880                  (OUT_DREPT)   -8.2325                     

(X_U10B.10)   -8.9122                 (X_U10B.11)   -8.9127                     

(X_U10B.12)  -10.6960                 (X_U10B.13)   -6.0000                     

(X_U10B.14)  -11.4130                 (X_U10B.18)   -8.1879                     

(X_U10B.28) 451.2E-06                 (X_U10B.38) 451.2E-06                     

(X_U10B.48) 451.2E-06                 (X_U10B.58) 451.2E-06                     

(X_U10B.59)    0.0000                 (X_U10B.60)  -15.0000                     

(X_U10B.68) 451.2E-06                 (X_U10B.70)   15.0000                     

(X_U10B.78) 451.2E-06                 (X_U10B.80)   13.1920                     

(X_U10B.90)   13.1930                 (X_U10B.99)   -8.2030                     

(X_U11B.10)    -.7484                 (X_U11B.11)    -.7484                     

(X_U11B.12)   -2.6078                 (X_U11B.13)    5.7351                     

(X_U11B.14)    -.7621                 (X_U11B.18)    2.6472                     

(X_U11B.28)-63.87E-06                 (X_U11B.38)-63.87E-06                     

(X_U11B.48)-63.87E-06                 (X_U11B.58)-63.87E-06                     

(X_U11B.59)    0.0000                 (X_U11B.60)  -15.0000                     

(X_U11B.68)-63.87E-06                 (X_U11B.70)   15.0000                     

(X_U11B.78)-63.87E-06                 (X_U11B.80)   13.1150                     

(X_U11B.90)   13.1150                 (X_U11B.99)    2.7522                     

(X_U6A.131)   15.0000                 (X_U6A.141)  -15.0000                     

(X_U7B.131)   15.7570                 (X_U7B.141)  -15.0000                     

(X_U8B.131)   15.0000                 (X_U8B.141)  -15.0000                     

(X_U9B.131)   15.6680                 (X_U9B.141)  -15.0000                     

(X_U10B.131)   15.0000                (X_U10B.141)  -15.0000                    

(X_U11B.131)   15.0000                (X_U11B.141)  -15.0000                




    VOLTAGE SOURCE CURRENTS
    NAME         CURRENT

    V_V1        -1.769E-01
    V_V2         3.936E-01
    X_U9B.VC    -6.841E-04
    X_U9B.VE     2.494E-11
    X_U8B.VC     2.011E-11
    X_U8B.VE     3.391E-12
    X_U11B.VC    9.265E-12
    X_U11B.VE    1.424E-11
    X_U7B.VC    -1.196E-03
    X_U7B.VE     2.504E-11
    X_U6A.VC     1.992E-11
    X_U6A.VE     3.586E-12
    X_U10B.VC    2.032E-11
    X_U10B.VE    3.587E-12

    TOTAL POWER DISSIPATION   8.56E+00  WATTS


**** 05/19/23 13:49:02 ****** PSpice 17.2.0 (March 2016) ****** ID# 0 ********

 ** Profile: "SCHEMATIC1-monte carlo"  [ c:\users\razvan.cacu\desktop\proiect cad\cad-pspicefiles\schematic1\monte carlo.sim ] 


 ****     INITIAL TRANSIENT SOLUTION       TEMPERATURE =   27.000 DEG C

                      MONTE CARLO PASS 8

******************************************************************************



 NODE   VOLTAGE     NODE   VOLTAGE     NODE   VOLTAGE     NODE   VOLTAGE


(   V+)   15.0000  (   V-)  -15.0000  (DREPT)   -8.4913  (OUT_B)   13.2760      

(N101793) 10.18E-06                   (N101839)    2.0983                       

(N101971)   13.2760                   (N102091)    8.5902                       

(N102163)-513.2E-06                   (N102217)-317.7E-06                       

(N102343)   -7.7001                   (N102447)-457.9E-06                       

(N102589)   -9.1254                   (N102841)   13.1810                       

(N102971) 107.7E-06                   (N102981)    2.5406                       

(N102995)    3.2695                   (N103139)    2.5406                       

(N103225)   -8.4877                   (N103373)    1.7883                       

(OUT_INT)   -8.4883                   (OUT_TRI)    2.4858                       

(X_U6A.1)   -8.5391                   (X_U6A.8)   -8.5391                       

(X_U7B.1)   13.6320                   (X_U7B.8)   13.6320                       

(X_U8B.1)   -9.5537                   (X_U8B.8)   -9.5537                       

(X_U9B.1)   13.2860                   (X_U9B.8)   13.2860                       

(N1026190)    -.0010                  (X_U10B.1)   -8.5271                      

(X_U10B.8)   -8.5271                  (X_U11B.1)    2.8201                      

(X_U11B.8)    2.8201                  (X_U6A.10)    -.7485                      

(X_U6A.11)    -.7489                  (X_U6A.12)   -2.6081                      

(X_U6A.13)   -5.2397                  (X_U6A.14)  -11.7370                      

(X_U6A.18)   -8.5190                  (X_U6A.28) 349.3E-06                      

(X_U6A.38) 349.3E-06                  (X_U6A.48) 349.3E-06                      

(X_U6A.58) 349.3E-06                  (X_U6A.59)    0.0000                      

(X_U6A.60)  -15.0000                  (X_U6A.68) 349.3E-06                      

(X_U6A.70)   15.0000                  (X_U6A.78) 349.3E-06                      

(X_U6A.80)   13.1150                  (X_U6A.90)   13.1150                      

(X_U6A.99)   -8.5391                  (X_U7B.10)    -.7281                      

(X_U7B.11)    1.3385                  (X_U7B.12)   -1.5641                      

(X_U7B.13)   16.5250                  (X_U7B.14)   10.0280                      

(X_U7B.18)   13.4920                  (X_U7B.28)   -2.0950                      

(X_U7B.38)   -2.0950                  (X_U7B.48)   -2.0950                      

(X_U7B.58)   -2.0950                  (X_U7B.59)    0.0000                      

(X_U7B.60)  -15.0000                  (X_U7B.68)   -2.0950                      

(X_U7B.70)   15.0030                  (X_U7B.78)   -2.0950                      

(X_U7B.80)   14.1530                  (X_U7B.90)   12.0580                      

(X_U7B.99)   13.6320                  (X_U8B.10)    -.7490                      

(X_U8B.11)    -.7494                  (X_U8B.12)   -2.6086                      

(X_U8B.13)   -5.2427                  (X_U8B.14)  -11.7400                      

(X_U8B.18)   -9.1341                  (X_U8B.28) 392.2E-06                      

(X_U8B.38) 392.2E-06                  (X_U8B.48) 392.2E-06                      

(X_U8B.58) 392.2E-06                  (X_U8B.59)    0.0000                      

(X_U8B.60)  -15.0000                  (X_U8B.68) 392.2E-06                      

(X_U8B.70)   15.0000                  (X_U8B.78) 392.2E-06                      

(X_U8B.80)   13.1150                  (X_U8B.90)   13.1150                      

(X_U8B.99)   -9.5537                  (X_U9B.10)   12.4320                      

(X_U9B.11)   12.5260                  (X_U9B.12)   10.4960                      

(X_U9B.13)   16.4300                  (X_U9B.14)    9.9326                      

(X_U9B.18)   13.2450                  (X_U9B.28)    -.0954                      

(X_U9B.38)    -.0954                  (X_U9B.48)    -.0954                      

(X_U9B.58)    -.0954                  (X_U9B.59)    0.0000                      

(X_U9B.60)  -15.0000                  (X_U9B.68)    -.0954                      

(X_U9B.70)   15.0000                  (X_U9B.78)    -.0954                      

(X_U9B.80)   13.0380                  (X_U9B.90)   12.9420                      

(X_U9B.99)   13.2860                  (OUT_DREPT)   -8.3448                     

(X_U10B.10)   -9.2351                 (X_U10B.11)   -9.2355                     

(X_U10B.12)  -11.0160                 (X_U10B.13)   -5.0000                     

(X_U10B.14)  -11.7360                 (X_U10B.18)   -8.5115                     

(X_U10B.28) 467.6E-06                 (X_U10B.38) 467.6E-06                     

(X_U10B.48) 467.6E-06                 (X_U10B.58) 467.6E-06                     

(X_U10B.59)    0.0000                 (X_U10B.60)  -15.0000                     

(X_U10B.68) 467.6E-06                 (X_U10B.70)   15.0000                     

(X_U10B.78) 467.6E-06                 (X_U10B.80)   13.1950                     

(X_U10B.90)   13.1960                 (X_U10B.99)   -8.5271                     

(X_U11B.10)    -.7484                 (X_U11B.11)    -.7484                     

(X_U11B.12)   -2.6078                 (X_U11B.13)    5.7892                     

(X_U11B.14)    -.7080                 (X_U11B.18)    2.7097                     

(X_U11B.28)-66.36E-06                 (X_U11B.38)-66.36E-06                     

(X_U11B.48)-66.36E-06                 (X_U11B.58)-66.36E-06                     

(X_U11B.59)    0.0000                 (X_U11B.60)  -15.0000                     

(X_U11B.68)-66.36E-06                 (X_U11B.70)   15.0000                     

(X_U11B.78)-66.36E-06                 (X_U11B.80)   13.1150                     

(X_U11B.90)   13.1150                 (X_U11B.99)    2.8201                     

(X_U6A.131)   15.0000                 (X_U6A.141)  -15.0000                     

(X_U7B.131)   15.7490                 (X_U7B.141)  -15.0000                     

(X_U8B.131)   15.0000                 (X_U8B.141)  -15.0000                     

(X_U9B.131)   15.6660                 (X_U9B.141)  -15.0000                     

(X_U10B.131)   15.0000                (X_U10B.141)  -15.0000                    

(X_U11B.131)   15.0000                (X_U11B.141)  -15.0000                




    VOLTAGE SOURCE CURRENTS
    NAME         CURRENT

    V_V1        -1.740E-01
    V_V2         3.969E-01
    X_U9B.VC    -6.804E-04
    X_U9B.VE     2.493E-11
    X_U8B.VC     2.024E-11
    X_U8B.VE     3.260E-12
    X_U11B.VC    9.211E-12
    X_U11B.VE    1.429E-11
    X_U7B.VC    -1.078E-03
    X_U7B.VE     2.503E-11
    X_U6A.VC     2.024E-11
    X_U6A.VE     3.263E-12
    X_U10B.VC    1.914E-11
    X_U10B.VE    3.264E-12

    TOTAL POWER DISSIPATION   8.57E+00  WATTS


**** 05/19/23 13:49:02 ****** PSpice 17.2.0 (March 2016) ****** ID# 0 ********

 ** Profile: "SCHEMATIC1-monte carlo"  [ c:\users\razvan.cacu\desktop\proiect cad\cad-pspicefiles\schematic1\monte carlo.sim ] 


 ****     INITIAL TRANSIENT SOLUTION       TEMPERATURE =   27.000 DEG C

                      MONTE CARLO PASS 9

******************************************************************************



 NODE   VOLTAGE     NODE   VOLTAGE     NODE   VOLTAGE     NODE   VOLTAGE


(   V+)   15.0000  (   V-)  -15.0000  (DREPT)   -8.4579  (OUT_B)   13.2870      

(N101793) 10.24E-06                   (N101839)    2.7474                       

(N101971)   13.2870                   (N102091)    8.5618                       

(N102163)-481.0E-06                   (N102217)-204.8E-06                       

(N102343)   -7.6667                   (N102447)-399.3E-06                       

(N102589)   -9.0997                   (N102841)   13.1830                       

[...]

(X_U10B.48) 481.7E-06                 (X_U10B.58) 481.7E-06                     

(X_U10B.59)    0.0000                 (X_U10B.60)  -15.0000                     

(X_U10B.68) 481.7E-06                 (X_U10B.70)   15.0000                     

(X_U10B.78) 481.7E-06                 (X_U10B.80)   13.1980                     

(X_U10B.90)   13.1980                 (X_U10B.99)   -8.8059                     

(X_U11B.10)    -.7484                 (X_U11B.11)    -.7484                     

(X_U11B.12)   -2.6078                 (X_U11B.13)    6.0048                     

(X_U11B.14)    -.4924                 (X_U11B.18)    2.9346                     

(X_U11B.28)-74.81E-06                 (X_U11B.38)-74.81E-06                     

(X_U11B.48)-74.81E-06                 (X_U11B.58)-74.81E-06                     

(X_U11B.59)    0.0000                 (X_U11B.60)  -15.0000                     

(X_U11B.68)-74.81E-06                 (X_U11B.70)   15.0000                     

(X_U11B.78)-74.81E-06                 (X_U11B.80)   13.1150                     

(X_U11B.90)   13.1150                 (X_U11B.99)    3.0512                     

(X_U6A.131)   15.0000                 (X_U6A.141)  -15.0000                     

(X_U7B.131)   15.7510                 (X_U7B.141)  -15.0000                     

(X_U8B.131)   15.0000                 (X_U8B.141)  -15.0000                     

(X_U9B.131)   15.6660                 (X_U9B.141)  -15.0000                     

(X_U10B.131)   15.0000                (X_U10B.141)  -15.0000                    

(X_U11B.131)   15.0000                (X_U11B.141)  -15.0000                




    VOLTAGE SOURCE CURRENTS
    NAME         CURRENT

    V_V1        -1.826E-01
    V_V2         3.874E-01
    X_U9B.VC    -6.814E-04
    X_U9B.VE     2.493E-11
    X_U8B.VC     2.005E-11
    X_U8B.VE     3.458E-12
    X_U11B.VC    8.995E-12
    X_U11B.VE    1.451E-11
    X_U7B.VC    -1.106E-03
    X_U7B.VE     2.503E-11
    X_U6A.VC     2.052E-11
    X_U6A.VE     2.986E-12
    X_U10B.VC    2.124E-11
    X_U10B.VE    2.987E-12

    TOTAL POWER DISSIPATION   8.56E+00  WATTS


**** 05/19/23 13:49:02 ****** PSpice 17.2.0 (March 2016) ****** ID# 0 ********

 ** Profile: "SCHEMATIC1-monte carlo"  [ c:\users\razvan.cacu\desktop\proiect cad\cad-pspicefiles\schematic1\monte carlo.sim ] 


 ****     INITIAL TRANSIENT SOLUTION       TEMPERATURE =   27.000 DEG C

                      MONTE CARLO PASS 19

******************************************************************************



 NODE   VOLTAGE     NODE   VOLTAGE     NODE   VOLTAGE     NODE   VOLTAGE


(   V+)   15.0000  (   V-)  -15.0000  (DREPT)   -8.0267  (OUT_B)   13.2720      

(N101793) 10.30E-06                   (N101839)    1.8757                       

(N101971)   13.2720                   (N102091)    8.4846                       

(N102163)-516.8E-06                   (N102217)-355.8E-06                       

(N102343)   -7.2350                   (N102447)-477.0E-06                       

(N102589)   -8.6874                   (N102841)   13.1800                       

(N102971) 100.9E-06                   (N102981)    2.6969                       

(N102995)    3.4257                   (N103139)    2.6969                       

(N103225)   -8.5882                   (N103373)    1.9422                       

(OUT_INT)   -8.5889                   (OUT_TRI)    2.6393                       

(X_U6A.1)   -8.6391                   (X_U6A.8)   -8.6391                       

(X_U7B.1)   13.6290                   (X_U7B.8)   13.6290                       

(X_U8B.1)   -9.0631                   (X_U8B.8)   -9.0631                       

(X_U9B.1)   13.2840                   (X_U9B.8)   13.2840                       

(N1026190)    -.0010                  (X_U10B.1)   -8.6266                      

(X_U10B.8)   -8.6266                  (X_U11B.1)    3.0055                      

(X_U11B.8)    3.0055                  (X_U6A.10)    -.7485                      

(X_U6A.11)    -.7489                  (X_U6A.12)   -2.6081                      

(X_U6A.13)   -5.3403                  (X_U6A.14)  -11.8370                      

(X_U6A.18)   -8.6193                  (X_U6A.28) 353.0E-06                      

(X_U6A.38) 353.0E-06                  (X_U6A.48) 353.0E-06                      

(X_U6A.58) 353.0E-06                  (X_U6A.59)    0.0000                      

(X_U6A.60)  -15.0000                  (X_U6A.68) 353.0E-06                      

(X_U6A.70)   15.0000                  (X_U6A.78) 353.0E-06                      

(X_U6A.80)   13.1150                  (X_U6A.90)   13.1150                      

(X_U6A.99)   -8.6391                  (X_U7B.10)    -.7313                      

(X_U7B.11)    1.1169                  (X_U7B.12)   -1.6755                      

(X_U7B.13)   16.5210                  (X_U7B.14)   10.0240                      

(X_U7B.18)   13.4880                  (X_U7B.28)   -1.8736                      

(X_U7B.38)   -1.8736                  (X_U7B.48)   -1.8736                      

(X_U7B.58)   -1.8736                  (X_U7B.59)    0.0000                      

(X_U7B.60)  -15.0000                  (X_U7B.68)   -1.8736                      

(X_U7B.70)   15.0030                  (X_U7B.78)   -1.8736                      

(X_U7B.80)   14.0430                  (X_U7B.90)   12.1690                      

(X_U7B.99)   13.6290                  (X_U8B.10)    -.7490                      

(X_U8B.11)    -.7494                  (X_U8B.12)   -2.6086                      

(X_U8B.13)   -4.7781                  (X_U8B.14)  -11.2750                      

(X_U8B.18)   -8.6537                  (X_U8B.28) 372.3E-06                      

(X_U8B.38) 372.3E-06                  (X_U8B.48) 372.3E-06                      

(X_U8B.58) 372.3E-06                  (X_U8B.59)    0.0000                      

(X_U8B.60)  -15.0000                  (X_U8B.68) 372.3E-06                      

(X_U8B.70)   15.0000                  (X_U8B.78) 372.3E-06                      

(X_U8B.80)   13.1150                  (X_U8B.90)   13.1150                      

(X_U8B.99)   -9.0631                  (X_U9B.10)   12.4310                      

(X_U9B.11)   12.5220                  (X_U9B.12)   10.4930                      

(X_U9B.13)   16.4290                  (X_U9B.14)    9.9316                      

(X_U9B.18)   13.2430                  (X_U9B.28)    -.0921                      

(X_U9B.38)    -.0921                  (X_U9B.48)    -.0921                      

(X_U9B.58)    -.0921                  (X_U9B.59)    0.0000                      

(X_U9B.60)  -15.0000                  (X_U9B.68)    -.0921                      

(X_U9B.70)   15.0000                  (X_U9B.78)    -.0921                      

(X_U9B.80)   13.0360                  (X_U9B.90)   12.9440                      

(X_U9B.99)   13.2840                  (OUT_DREPT)   -7.9085                     

(X_U10B.10)   -9.3356                 (X_U10B.11)   -9.3361                     

(X_U10B.12)  -11.1150                 (X_U10B.13)   -5.0000                     

(X_U10B.14)  -11.8370                 (X_U10B.18)   -8.6115                     

(X_U10B.28) 472.7E-06                 (X_U10B.38) 472.7E-06                     

(X_U10B.48) 472.7E-06                 (X_U10B.58) 472.7E-06                     

(X_U10B.59)    0.0000                 (X_U10B.60)  -15.0000                     

(X_U10B.68) 472.7E-06                 (X_U10B.70)   15.0000                     

(X_U10B.78) 472.7E-06                 (X_U10B.80)   13.1960                     

(X_U10B.90)   13.1970                 (X_U10B.99)   -8.6266                     

(X_U11B.10)    -.7484                 (X_U11B.11)    -.7484                     

(X_U11B.12)   -2.6078                 (X_U11B.13)    5.9455                     

(X_U11B.14)    -.5517                 (X_U11B.18)    2.8836                     

(X_U11B.28)-73.14E-06                 (X_U11B.38)-73.14E-06                     

(X_U11B.48)-73.14E-06                 (X_U11B.58)-73.14E-06                     

(X_U11B.59)    0.0000                 (X_U11B.60)  -15.0000                     

(X_U11B.68)-73.14E-06                 (X_U11B.70)   15.0000                     

(X_U11B.78)-73.14E-06                 (X_U11B.80)   13.1150                     

(X_U11B.90)   13.1150                 (X_U11B.99)    3.0055                     

(X_U6A.131)   15.0000                 (X_U6A.141)  -15.0000                     

(X_U7B.131)   15.7460                 (X_U7B.141)  -15.0000                     

(X_U8B.131)   15.0000                 (X_U8B.141)  -15.0000                     

(X_U9B.131)   15.6650                 (X_U9B.141)  -15.0000                     

(X_U10B.131)   15.0000                (X_U10B.141)  -15.0000                    

(X_U11B.131)   15.0000                (X_U11B.141)  -15.0000                




    VOLTAGE SOURCE CURRENTS
    NAME         CURRENT

    V_V1        -1.845E-01
    V_V2         3.857E-01
    X_U9B.VC    -6.790E-04
    X_U9B.VE     2.493E-11
    X_U8B.VC     1.978E-11
    X_U8B.VE     3.725E-12
    X_U11B.VC    9.055E-12
    X_U11B.VE    1.445E-11
    X_U7B.VC    -1.040E-03
    X_U7B.VE     2.502E-11
    X_U6A.VC     2.034E-11
    X_U6A.VE     3.163E-12
    X_U10B.VC    2.106E-11
    X_U10B.VE    3.163E-12

    TOTAL POWER DISSIPATION   8.56E+00  WATTS


**** 05/19/23 13:49:02 ****** PSpice 17.2.0 (March 2016) ****** ID# 0 ********

 ** Profile: "SCHEMATIC1-monte carlo"  [ c:\users\razvan.cacu\desktop\proiect cad\cad-pspicefiles\schematic1\monte carlo.sim ] 


 ****     INITIAL TRANSIENT SOLUTION       TEMPERATURE =   27.000 DEG C

                      MONTE CARLO PASS 20

******************************************************************************



 NODE   VOLTAGE     NODE   VOLTAGE     NODE   VOLTAGE     NODE   VOLTAGE


(   V+)   15.0000  (   V-)  -15.0000  (DREPT)   -8.2453  (OUT_B)   13.2840      

(N101793) 10.22E-06                   (N101839)    2.5358                       

(N101971)   13.2840                   (N102091)    8.5370                       

(N102163)-516.1E-06                   (N102217)-235.1E-06                       

(N102343)   -7.4552                   (N102447)-408.3E-06                       

(N102589)   -8.9054                   (N102841)   13.1830                       

(N102971) 109.6E-06                   (N102981)    2.4846                       

(N102995)    3.2159                   (N103139)    2.4846                       

(N103225)   -8.5687                   (N103373)    1.7302                       

(OUT_INT)   -8.5693                   (OUT_TRI)    2.4312                       

(X_U6A.1)   -8.6182                   (X_U6A.8)   -8.6182                       

(X_U7B.1)   13.6420                   (X_U7B.8)   13.6420                       

(X_U8B.1)   -9.2474                   (X_U8B.8)   -9.2474                       

(X_U9B.1)   13.2880                   (X_U9B.8)   13.2880                       

(N1026190)-960.0E-06                  (X_U10B.1)   -8.6074                      

(X_U10B.8)   -8.6074                  (X_U11B.1)    2.7682                      

(X_U11B.8)    2.7682                  (X_U6A.10)    -.7485                      

(X_U6A.11)    -.7489                  (X_U6A.12)   -2.6081                      

(X_U6A.13)   -5.3207                  (X_U6A.14)  -11.8180                      

(X_U6A.18)   -8.5989                  (X_U6A.28) 352.2E-06                      

(X_U6A.38) 352.2E-06                  (X_U6A.48) 352.2E-06                      

(X_U6A.58) 352.2E-06                  (X_U6A.59)    0.0000                      

(X_U6A.60)  -15.0000                  (X_U6A.68) 352.2E-06                      

(X_U6A.70)   15.0000                  (X_U6A.78) 352.2E-06                      

(X_U6A.80)   13.1150                  (X_U6A.90)   13.1150                      

(X_U6A.99)   -8.6182                  (X_U7B.10)    -.7205                      

(X_U7B.11)    1.7741                  (X_U7B.12)   -1.3445                      

(X_U7B.13)   16.5320                  (X_U7B.14)   10.0350                      

(X_U7B.18)   13.5010                  (X_U7B.28)   -2.5288                      

(X_U7B.38)   -2.5288                  (X_U7B.48)   -2.5288                      

(X_U7B.58)   -2.5288                  (X_U7B.59)    0.0000                      

(X_U7B.60)  -15.0000                  (X_U7B.68)   -2.5288                      

(X_U7B.70)   15.0040                  (X_U7B.78)   -2.5288                      

(X_U7B.80)   14.3670                  (X_U7B.90)   11.8390                      

(X_U7B.99)   13.6420                  (X_U8B.10)    -.7489                      

(X_U8B.11)    -.7493                  (X_U8B.12)   -2.6085                      

(X_U8B.13)   -4.9967                  (X_U8B.14)  -11.4940                      

(X_U8B.18)   -8.8516                  (X_U8B.28) 377.5E-06                      

(X_U8B.38) 377.5E-06                  (X_U8B.48) 377.5E-06                      

(X_U8B.58) 377.5E-06                  (X_U8B.59)    0.0000                      

(X_U8B.60)  -15.0000                  (X_U8B.68) 377.5E-06                      

(X_U8B.70)   15.0000                  (X_U8B.78) 377.5E-06                      

(X_U8B.80)   13.1150                  (X_U8B.90)   13.1150                      

(X_U8B.99)   -9.2474                  (X_U9B.10)   12.4330                      

(X_U9B.11)   12.5330                  (X_U9B.12)   10.5000                      

(X_U9B.13)   16.4310                  (X_U9B.14)    9.9342                      

(X_U9B.18)   13.2460                  (X_U9B.28)    -.1010                      

(X_U9B.38)    -.1010                  (X_U9B.48)    -.1010                      

(X_U9B.58)    -.1010                  (X_U9B.59)    0.0000                      

(X_U9B.60)  -15.0000                  (X_U9B.68)    -.1010                      

(X_U9B.70)   15.0000                  (X_U9B.78)    -.1010                      

(X_U9B.80)   13.0400                  (X_U9B.90)   12.9390                      

(X_U9B.99)   13.2880                  (OUT_DREPT)   -8.1254                     

(X_U10B.10)   -9.3160                 (X_U10B.11)   -9.3165                     

(X_U10B.12)  -11.0960                 (X_U10B.13)   -6.0000                     

(X_U10B.14)  -11.8170                 (X_U10B.18)   -8.5921                     

(X_U10B.28) 471.7E-06                 (X_U10B.38) 471.7E-06                     

(X_U10B.48) 471.7E-06                 (X_U10B.58) 471.7E-06                     

(X_U10B.59)    0.0000                 (X_U10B.60)  -15.0000                     

(X_U10B.68) 471.7E-06                 (X_U10B.70)   15.0000                     

(X_U10B.78) 471.7E-06                 (X_U10B.80)   13.1960                     

(X_U10B.90)   13.1960                 (X_U10B.99)   -8.6074                     

(X_U11B.10)    -.7484                 (X_U11B.11)    -.7484                     

(X_U11B.12)   -2.6078                 (X_U11B.13)    5.7332                     

(X_U11B.14)    -.7640                 (X_U11B.18)    2.6562                     

(X_U11B.28)-64.46E-06                 (X_U11B.38)-64.46E-06                     

(X_U11B.48)-64.46E-06                 (X_U11B.58)-64.46E-06                     

(X_U11B.59)    0.0000                 (X_U11B.60)  -15.0000                     

(X_U11B.68)-64.46E-06                 (X_U11B.70)   15.0000                     

(X_U11B.78)-64.46E-06                 (X_U11B.80)   13.1150                     

(X_U11B.90)   13.1150                 (X_U11B.99)    2.7682                     

(X_U6A.131)   15.0000                 (X_U6A.141)  -15.0000                     

(X_U7B.131)   15.7540                 (X_U7B.141)  -15.0000                     

(X_U8B.131)   15.0000                 (X_U8B.141)  -15.0000                     

(X_U9B.131)   15.6670                 (X_U9B.141)  -15.0000                     

(X_U10B.131)   15.0000                (X_U10B.141)  -15.0000                    

(X_U11B.131)   15.0000                (X_U11B.141)  -15.0000                




    VOLTAGE SOURCE CURRENTS
    NAME         CURRENT

    V_V1        -1.797E-01
    V_V2         3.978E-01
    X_U9B.VC    -6.828E-04
    X_U9B.VE     2.493E-11
    X_U8B.VC     2.000E-11
    X_U8B.VE     3.506E-12
    X_U11B.VC    9.267E-12
    X_U11B.VE    1.424E-11
    X_U7B.VC    -1.151E-03
    X_U7B.VE     2.504E-11
    X_U6A.VC     2.032E-11
    X_U6A.VE     3.182E-12
    X_U10B.VC    2.094E-11
    X_U10B.VE    3.183E-12

    TOTAL POWER DISSIPATION   8.67E+00  WATTS


**** 05/19/23 13:49:02 ****** PSpice 17.2.0 (March 2016) ****** ID# 0 ********

 ** Profile: "SCHEMATIC1-monte carlo"  [ c:\users\razvan.cacu\desktop\proiect cad\cad-pspicefiles\schematic1\monte carlo.sim ] 


 ****     SORTED DEVIATIONS OF V(OUT_TRI)  TEMPERATURE =   27.000 DEG C

                      MONTE CARLO SUMMARY

******************************************************************************





Mean Deviation =    3.329 
Sigma          =    6.8176

 RUN                    MAX DEVIATION FROM NOMINAL

Pass   14               8.1162  (1.19 sigma)  higher  at T =  515.3700E-06
                        (-101.23% of Nominal)

Pass    3               8.1101  (1.19 sigma)  higher  at T =  515.3700E-06
                        (-101.08% of Nominal)

Pass    4               8.1021  (1.19 sigma)  lower  at T =  940.9100E-06
                        (-103.29% of Nominal)

Pass   13               8.0933  (1.19 sigma)  higher  at T =    1.9240E-03
                        (-100.67% of Nominal)

Pass   11               8.0347  (1.18 sigma)  higher  at T =  515.3700E-06
                        ( -99.208% of Nominal)

Pass   12               8.0269  (1.18 sigma)  higher  at T =  515.3700E-06
                        ( -99.014% of Nominal)

Pass   10               8.0246  (1.18 sigma)  higher  at T =  515.3700E-06
                        ( -98.957% of Nominal)

Pass    7               7.967   (1.17 sigma)  higher  at T =  515.3700E-06
                        ( -97.529% of Nominal)

Pass    6               7.9115  (1.16 sigma)  higher  at T =  475.4800E-06
                        ( -96.635% of Nominal)

Pass   17               7.8819  (1.16 sigma)  higher  at T =  515.3700E-06
                        ( -95.421% of Nominal)

Pass    2               7.8295  (1.15 sigma)  higher  at T =  515.3700E-06
                        ( -94.119% of Nominal)

Pass   16               7.8197  (1.15 sigma)  lower  at T =    1.0445E-03
                        ( -96.337% of Nominal)

Pass   20               7.7783  (1.14 sigma)  higher  at T =  515.3700E-06
                        ( -92.85 % of Nominal)

Pass    5               7.7337  (1.13 sigma)  lower  at T =    1.4577E-03
                        ( -96.634% of Nominal)

Pass   15               7.7069  (1.13 sigma)  higher  at T =  890.1600E-06
                        ( -97.552% of Nominal)

Pass   19               7.68    (1.13 sigma)  higher  at T =  785.2100E-06
                        ( -93.522% of Nominal)

Pass    9               5.6319  ( .83 sigma)  lower  at T =    1.9918E-03
                        (-273.5 % of Nominal)

Pass   18               5.4185  ( .79 sigma)  lower  at T =    1.9613E-03
                        (-214.21% of Nominal)

Pass    8               5.2046  ( .76 sigma)  lower  at T =    1.9776E-03
                        ( -31.216% of Nominal)



          JOB CONCLUDED

**** 05/19/23 13:49:02 ****** PSpice 17.2.0 (March 2016) ****** ID# 0 ********

 ** Profile: "SCHEMATIC1-monte carlo"  [ c:\users\razvan.cacu\desktop\proiect cad\cad-pspicefiles\schematic1\monte carlo.sim ] 


 ****     JOB STATISTICS SUMMARY


******************************************************************************



  Total job time (using Solver 1)   =       25.31
